<?xml version="1.0" encoding="UTF-8"?>

<!-- generated on 2024-06-19 14:53:38.930541 by randomTrips.py UNKNOWN
<configuration>
    <end value="300"/>
    <net-file value="osm.net.xml"/>
    <period value="0.5"/>
    <route-file value="osm.rou.xml"/>
</configuration>
-->

<!-- generated on 2024-06-19 14:53:38 by Eclipse SUMO duarouter Version v1_15_0+0596-65718631903
<configuration xmlns:xsi="http://www.w3.org/2001/XMLSchema-instance" xsi:noNamespaceSchemaLocation="http://sumo.dlr.de/xsd/duarouterConfiguration.xsd">

    <input>
        <net-file value="osm.net.xml"/>
        <route-files value="trips.trips.xml"/>
    </input>

    <output>
        <output-file value="osm.rou.xml"/>
        <alternatives-output value="NUL"/>
    </output>

    <time>
        <begin value="0"/>
        <end value="300"/>
    </time>

    <report>
        <no-warnings value="true"/>
        <ignore-errors value="true"/>
        <no-step-log value="true"/>
    </report>

</configuration>
-->

<routes xmlns:xsi="http://www.w3.org/2001/XMLSchema-instance" xsi:noNamespaceSchemaLocation="http://sumo.dlr.de/xsd/routes_file.xsd">
    <vehicle id="0" depart="0.00">
        <route edges="635470894 634255234 479388625 634255233 655149206 746976889#1 746976887 538766118#0 538766118#1 746966173 120719659#0 120719659#1 746963951 634223813 634702969 746967062 -96670626 -747038554 -479552718"/>
    </vehicle>
    <vehicle id="1" depart="0.50">
        <route edges="168242590 479608894 538766103 743297324 464985775 639936522 743294539 743294536 538766118#0 538766118#1 746966173 120719659#0"/>
    </vehicle>
    <vehicle id="2" depart="1.00">
        <route edges="644922572 747368578 449399358 747369067 747369738 638912257 634702969 746967062 479608893 538766114 96677745 -741980772#1 -741980772#0 -741980771#0 -669036662 639874638"/>
    </vehicle>
    <vehicle id="3" depart="1.50">
        <route edges="746655212 314385986 1156268462 538767555 634722286 538767561#0 538767561#1 1122255696 479388631 533283452 262819996 652296706 262819990 526887917 479770578 746702000 668585464 479770577 479612876 -538769201 -742170149 -538769212#1 -538769212#0 -646647827"/>
    </vehicle>
    <vehicle id="4" depart="2.00">
        <route edges="479568120 526887917 479770578 652549727 479770579 403795728 479766701 649392322 635689731 746690575 639934621 96670625#0 96670625#1 96670625#2 675079026 -538766109"/>
    </vehicle>
    <vehicle id="5" depart="2.50">
        <route edges="120719658#1 120719658#2 655148853 634257156 634255233 655149206 746976889#1 746976887 538766118#0 538766118#1"/>
    </vehicle>
    <vehicle id="6" depart="3.00">
        <route edges="-479753340 -639568319 538767564 -1038616655 -741980092 746960991 746961045 741980093 1038616655"/>
    </vehicle>
    <vehicle id="7" depart="3.50">
        <route edges="635689731 746690575 746688152 634722287 647111334 538767558 639934188 743255421 448937538 538769210"/>
    </vehicle>
    <vehicle id="8" depart="4.00">
        <route edges="120719658#1 120719658#2 655148853 634257156 634255233 655149206 746976889#1 746976887 -538766111#1 -743297325 639936523 573713869"/>
    </vehicle>
    <vehicle id="9" depart="4.50">
        <route edges="655644175 512870222#0 644626278#0 22278331#0 22278331#1 22278331#2 635470894 634255234 479388625 634257155 655492366#0 655492366#1 655492366#2 96670628 655492363 538767575 262819992 746690575 746688152 634722287 647111334 538767558 639934188 743255421 169421671 -169421671"/>
    </vehicle>
    <vehicle id="10" depart="5.00">
        <route edges="655641116 538766098#0 573704870#0 655571315 728236606 573704883 633617699 639999881"/>
    </vehicle>
    <vehicle id="11" depart="5.50">
        <route edges="314385981 746653374 746655212 314385986 746961045 741980093 1038616655 -743281343"/>
    </vehicle>
    <vehicle id="12" depart="6.00">
        <route edges="747368578 449399358 747369067 747369738 638912257 634702969 746967062 479608893 538766114 96677745 746960991 746656963 538767549 538770176 314385981"/>
    </vehicle>
    <vehicle id="13" depart="6.50">
        <route edges="-647111334 -634722287 -538769218 -743281343 -538766109 538766118#0 538766118#1 746966173 120719659#0 120719659#1 746963951 634223813 634702969 746967062 -96670626 -747038554 -479552718 -668798705"/>
    </vehicle>
    <vehicle id="14" depart="7.00">
        <route edges="741980093 1038616655 -743281343 -538766109 538766118#0 538766118#1 746966173 120719659#0 120719659#1 746963951 634223813"/>
    </vehicle>
    <vehicle id="15" depart="7.50">
        <route edges="655641116 538766098#0 573704870#0 655571315 728236606 746714120 573704873#0 573704871 655644175 512870222#0 644626278#0 22278331#0 22278331#1 22278331#2 635470894 634255234 479388625 634257155 655492366#0 655492366#1 655492366#2 141428143#0 141428143#1 159115036#0 159115036#1 644466857"/>
    </vehicle>
    <vehicle id="16" depart="8.00">
        <route edges="538767561#1 1122255696 479388631 635689173 635689731 746690575 746688152 634722287 647111334 538767558 639934188 743255421 169421671 96668755"/>
    </vehicle>
    <vehicle id="17" depart="8.50">
        <route edges="449399358 747369067 747369738 638912257 634702969 746967062 479608893 538766114 96677745 746960991 1156268462 538767555 479753342 647111334 538767558 639934188 743255421 448937538 538769210 646647827 538769212#0 538769212#1"/>
    </vehicle>
    <vehicle id="18" depart="9.00">
        <route edges="675079026 -538766109 120719658#0 120719658#1 120719658#2 655148853 634257156"/>
    </vehicle>
    <vehicle id="19" depart="9.50">
        <route edges="742170149 538769201 742167351 479612875 479619179 668585466 652549727 479770579 403795728 479766701 649392322 96678021 479552717 1156275592 173896145#0 173896145#1 480227677 480227676#0 655641116 538766098#0 573704870#0 655571315 728236606 746714120 573704873#0"/>
    </vehicle>
    <vehicle id="20" depart="10.00">
        <route edges="640196567#0 640196567#1 333374585 -675335532 -684368039 -640196567#0 743294536 120719658#0 120719658#1 120719658#2 655148853 634257156 634257155 655492366#0 655492366#1 655492366#2 96670628 655492363 538767575 635689735 635689172 262819996 652296706 262819990 526887917 479770578 746702000 668585464 479770577 479612876 -538769201 -742170149 -538769212#1 -538769212#0 -646647827 -538769210"/>
    </vehicle>
    <vehicle id="21" depart="10.50">
        <route edges="120719659#0 120719659#1 746963951 634223813 634275860 479608894 538766103 175878990#0 649538096 573713867 633796584#0 644626278#0 22278331#0 22278331#1 22278331#2 635470894 634255234 479388625 1156275592 173896145#0 173896145#1"/>
    </vehicle>
    <vehicle id="22" depart="11.00">
        <route edges="-644922572 -747367551 -745327739 -740962221 -745349346 -639999881 -745356719 538766099 746714120 573704873#0 573704871 655644175 512870222#0 644626278#0 22278331#0 22278331#1 22278331#2 635470894 634255234 479388625 634257155 655492366#0 655492366#1 655492366#2 141428143#0"/>
    </vehicle>
    <vehicle id="23" depart="11.50">
        <route edges="-669036662 639874638 737200024 741976425 314385981 746653374 746655212 314385986 746961045 479390110 479390113 746966173 120719659#0 120719659#1 746963951 634223813 634275860 479608894 538766103 175878990#0 649538096 573713867 633796584#0 173896250#0 173166882#0"/>
    </vehicle>
    <vehicle id="24" depart="12.00">
        <route edges="634722287 647111334 538767558 639934188 743255421 448937538 538769210 646647827 538769212#0 538769212#1 742170149 538769201 742167351 479612875 479619179 668585466 652549727 479770579 403795728"/>
    </vehicle>
    <vehicle id="25" depart="12.50">
        <route edges="448937538 538769210 646647827 538769212#0 538769212#1 742170149 538769201 742167351 479612875 479619179 668585466 652549727 479770579 403795728 479766701 649392322 96678021 479552717 1156275592"/>
    </vehicle>
    <vehicle id="26" depart="13.00">
        <route edges="168242587 747369068 168242583 -22278659 -644922572 -747367551 -745327739 -740962221 -745349346 -639999881 -745356719 538766099 746714120 573704873#0 573704871 655644175 512870222#0 644626278#0 22278331#0 22278331#1 22278331#2 635470894 634255234 479388625 634255233 655149206 746976889#1"/>
    </vehicle>
    <vehicle id="27" depart="13.50">
        <route edges="635689173 96678021 479552717 634255233"/>
    </vehicle>
    <vehicle id="28" depart="14.00">
        <route edges="-747034361 746688152 -538769218 -743281343 -675079025 175840210 644466857"/>
    </vehicle>
    <vehicle id="29" depart="14.50">
        <route edges="-745349346 -639999881 -745356719 538766099 746714120 573704873#0 573704871 655644175 512870222#0 644626278#0 22278331#0 22278331#1 22278331#2 635470894 634255234 479388625 634257155 655492366#0 655492366#1 655492366#2 96670628 655492363 538767575 635689735 635689172 262819996 652296706 262819990 526887917 479770578 746702000 668585464 479770577 479612876 -538769201 -742170149 -538769212#1 -538769212#0 -646647827 -538769210 538769214 464985740"/>
    </vehicle>
    <vehicle id="30" depart="15.00">
        <route edges="96677745 479390110 -639568596 -479753340 -639568319 -675079025 -670463578 -96670625#1 -96670625#0 641071177#0 641071177#1 644466467#1 747039987#1 655492363 538767575 635689735 635689172"/>
    </vehicle>
    <vehicle id="31" depart="15.50">
        <route edges="538769212#1 742170149 538769201 742167351 479612875 479619179 668585466 652549727 479770579 403795728 479766701 649392322 635689731 746690575 639934621"/>
    </vehicle>
    <vehicle id="32" depart="16.00">
        <route edges="741979001 541928632 96678446 639874635 741980771#1 741980772#1 741980093 1038616655 743279979 538767561#0 538767561#1 1122255696 479388631 533283452 262819996 652296706 262819990 526887917 479770578 652549727"/>
    </vehicle>
    <vehicle id="33" depart="16.50">
        <route edges="120719659#1 746963951 634223813 634702969 746967062 479608893 538766114 -639568596 -479753340 -639568319 -538766109"/>
    </vehicle>
    <vehicle id="34" depart="17.00">
        <route edges="22278331#1 22278331#2 635470894 634255234 479388625 634255233 655149206 746976889#1 746976887 -538766111#1 -743297325 639936523 573713869 743297323 168242589"/>
    </vehicle>
    <vehicle id="35" depart="17.50">
        <route edges="1156275592 173896145#0 173896145#1 480227677 480227676#0 644626278#0 22278331#0 22278331#1 22278331#2 635470894 634255234 479388625 634255233 655149206 746976889#1 746976887 538766118#0 538766118#1 538766114 747037550"/>
    </vehicle>
    <vehicle id="36" depart="18.00">
        <route edges="743294539 743294536 120719658#0 120719658#1 120719658#2 655148853 634257156 1156275592 173896145#0 173896145#1 480227677 480227676#0 644626278#0 22278331#0 22278331#1"/>
    </vehicle>
    <vehicle id="37" depart="18.50">
        <route edges="635689735 635689172 262819996 652296706 652296707 479766701 649392322 635689731 746690575 746688152 479537328 479390106"/>
    </vehicle>
    <vehicle id="38" depart="19.00">
        <route edges="746960991 1156268462 538767555 634722286 538767561#0 538767561#1 1122255696 479388631 533283452 262819996 652296706 262819990 526887917 479770578 652549727 479770579"/>
    </vehicle>
    <vehicle id="39" depart="19.50">
        <route edges="168242587 747369068 168242583 -22278659 -644922572 -747367551 -745327739 -740962221 -745349346 -639999881 -745356719 538766099 746714120 573704873#0 573704871 655644175 168241645 173166882#0 173166882#1 652027920 168242577#0 743297324 464985775 639936522 743294539 743294536 120719658#0 159115037"/>
    </vehicle>
    <vehicle id="40" depart="20.00">
        <route edges="538769214 -644696196 -169421671 -743255421 -743279978 -538767558 -647111334 -634722287 -538769218 -743281343 -538766109 538766118#0 538766118#1 746966173 120719659#0 120719659#1 746963951 634223813 638912261 747369068 168242583"/>
    </vehicle>
    <vehicle id="41" depart="20.50">
        <route edges="573704883 538766099 746714120 573704873#0 573704871 655644175 512870222#0 644626278#0 22278331#0 22278331#1 22278331#2 635470894 634255234 479388625 634257155 655492366#0 655492366#1 655492366#2 96670628 655492363 538767575 262819992 746690575 746688152"/>
    </vehicle>
    <vehicle id="42" depart="21.00">
        <route edges="479390106 466551641 746961045 479390110 479390113 538766115 120719658#0 120719658#1 120719658#2"/>
    </vehicle>
    <vehicle id="43" depart="21.50">
        <route edges="96678446 639874635 741980771#1 741980772#1 479390110 479390113 538766115 -538766111#1 -743297325 639936523 573713869 743297323 448937539 572168500 538766122"/>
    </vehicle>
    <vehicle id="44" depart="22.00">
        <route edges="-647111334 -634722287 538767561#0 538767561#1 1122255696 479388631 533283452 262819996 652296706 262819990 526887917 479770578 746702000 668585464 479770577 479612876 -538769201 -742170149 -538769212#1 -538769212#0 -646647827 -538769210"/>
    </vehicle>
    <vehicle id="45" depart="22.50">
        <route edges="-675335532 -684368039 -640196567#0 -743297325 639936523 573713869 743297323 448937539 572168500 538766122 655696048 655696049 634702969"/>
    </vehicle>
    <vehicle id="46" depart="23.00">
        <route edges="655492366#0 655492366#1 655492366#2 141428143#0 141428143#1 646400892 641071178 96670625#0 96670625#1 96670625#2 675079026 639568320 639568318 639568595 747037550 747037547 639936516 479552719 747039014 479608893"/>
    </vehicle>
    <vehicle id="47" depart="23.50">
        <route edges="-639568319 -538766109 -538766111#1 -743297325 639936523 573713869 743297323 448937539 572168500 743297324 464985775"/>
    </vehicle>
    <vehicle id="48" depart="24.00">
        <route edges="96678021 479552717 634257155 655492366#0 655492366#1 655492366#2 96670628 655492363 538767575 262819992 746690575 746688152 538767561#0"/>
    </vehicle>
    <vehicle id="49" depart="24.50">
        <route edges="96668755 -464985741 538769210 646647827 538769212#0 538769212#1 742170149"/>
    </vehicle>
    <vehicle id="50" depart="25.00">
        <route edges="-333374586 -684368039 -640196567#0 -743297325 639936523 573713869 743297323 168242589 649538096 573713867 633796584#0 655641116 538766098#0 573704870#0 655571315 728236606 573704883 633617699 639999881 641121025"/>
    </vehicle>
    <vehicle id="51" depart="25.50">
        <route edges="639934188 743255421 169421671 -169421671 -743255421 -743279978 -538767558 -647111334 -634722287 538767561#0 538767561#1 1122255696 479388631 635689173 635689731 746690575 639934621 641071177#0 641071177#1 644466467#1 747039987#1 655492363 538767575"/>
    </vehicle>
    <vehicle id="52" depart="26.00">
        <route edges="168242587 747369068 168242583 -22278659 -644922572 -747367551 -745327739 -740962221 -745349346 -639999881 -745356719 538766099 746714120 573704873#0 573704871 655644175 512870222#0 644626278#0 22278331#0 22278331#1 22278331#2 635470894 634255234 479388625 634257155 655492366#0 655492366#1 655492366#2 96670628 655492363 538767575 635689735 635689172"/>
    </vehicle>
    <vehicle id="53" depart="26.50">
        <route edges="-675335532 -684368039 -640196567#0 743294536 120719658#0 120719658#1 120719658#2 655148853 634257156 634257155 655492366#0 655492366#1 655492366#2 96670628 655492363 538767575 635689735 635689172 262819996 652296706 262819990 526887917 479770578 746702000 668585464 479770577 479619180 479612875 479619179"/>
    </vehicle>
    <vehicle id="54" depart="27.00">
        <route edges="479770577 479619180 479612875 479619179 668585466 652549727 479770579 403795728 479766701 649392322 635689731 746690575 639934621 96670625#0 96670625#1 96670625#2 175840210 747058652"/>
    </vehicle>
    <vehicle id="55" depart="27.50">
        <route edges="743294539 743294536 538766118#0 538766118#1 746966173 120719659#0 120719659#1 746963951 634223813 634275860 479608894 538766103 538766122 655696048 168242587"/>
    </vehicle>
    <vehicle id="56" depart="28.00">
        <route edges="538766115 538766118#0 538766118#1 746966173 120719659#0 120719659#1 746963951 634223813 634702969 746967062 -96670626 -747038554 -479552718 -668798705 -747037548"/>
    </vehicle>
    <vehicle id="57" depart="28.50">
        <route edges="746714120 573704873#0 573704871 655644175 168241645 173166882#0 173166882#1 652027920 168242577#0 743297324 464985775 639936522 743294539 743294536"/>
    </vehicle>
    <vehicle id="58" depart="29.00">
        <route edges="175840209#0 175840209#1 641071178 641071177#0 641071177#1 644466467#1 747039987#1 655492363 538767575 635689735 635689172"/>
    </vehicle>
    <vehicle id="59" depart="29.50">
        <route edges="634255233 655149206 746976889#1 746976887 538766109 538767564 743279979 634722287 647111334 538767558 639934188 743255421 169421671 -169421671 -743255421 -743279978"/>
    </vehicle>
    <vehicle id="60" depart="30.00">
        <route edges="652027920 168242577#0 175878990#0 649538096 573713867 633796584#0 644626278#0 22278331#0 22278331#1 22278331#2 635470894 634255234 479388625 634257155 655492366#0 655492366#1 655492366#2 96670628 655492363 538767575"/>
    </vehicle>
    <vehicle id="61" depart="30.50">
        <route edges="652549727 479770579 403795728 479766701 649392322 635689731 746690575 746688152 538767561#0 538767561#1"/>
    </vehicle>
    <vehicle id="62" depart="31.00">
        <route edges="-1038616655 -741980092 479390110 479390113 746966173 120719659#0 120719659#1 746963951 634223813 634275860 479608894 22278666"/>
    </vehicle>
    <vehicle id="63" depart="31.50">
        <route edges="-464985741 -448937538 -743255421 -743279978 -538767558 -647111334 -634722287 -538769218 -743281343 -538766109 538766118#0 538766118#1 746966173 120719659#0 120719659#1 746963951 634223813 634702969 746967062"/>
    </vehicle>
    <vehicle id="64" depart="32.00">
        <route edges="743297323 168242589 649538096 573713867 633796584#0 655641116 538766098#0 573704870#0 655571315 728236606"/>
    </vehicle>
    <vehicle id="65" depart="32.50">
        <route edges="175840210 644466857 -670463578 -96670625#1 -96670625#0 -747034361 746688152 -538769218"/>
    </vehicle>
    <vehicle id="66" depart="33.00">
        <route edges="743297323 448937539 572168500 538766122 655696048 655696049 634702969 746967062 479608893 538766114 747037550 747037547 639936516 479552719 747039014"/>
    </vehicle>
    <vehicle id="67" depart="33.50">
        <route edges="-646647827 -538769210 -448937538 -743255421 -743279978 -538767558 -647111334 -634722287 -538769218 -743281343 -538766109 538766118#0 538766118#1 746966173 120719659#0 120719659#1 746963951 634223813 634275860 479608894 538766103"/>
    </vehicle>
    <vehicle id="68" depart="34.00">
        <route edges="-639999881 -745356719 538766099 746714120 573704873#0 573704871 655644175 168241645 173166882#0 173166882#1 652027920"/>
    </vehicle>
    <vehicle id="69" depart="34.50">
        <route edges="652027921#0 538766122 655696048 655696049 634702969 746967062 479608893 538766114 96677745 -741980772#1 -741980772#0 -741980771#0"/>
    </vehicle>
    <vehicle id="70" depart="35.00">
        <route edges="526887917 479770578 746702000 668585464 479770577 479612876 -538769201 -742170149 -538769212#1 -538769212#0 -646647827 -538769210 -448937538 169421671 -169421671 448937538 538769210 646647827 538769212#0"/>
    </vehicle>
    <vehicle id="71" depart="35.50">
        <route edges="168242587 747369068 168242583 -22278659 -644922572 -747367551 -745327739 -740962221 -745349346 -639999881 -745356719 538766099 746714120 573704873#0 573704871 655644175 168241645 173166882#0 173166882#1 652027920 168242577#0 743297324 464985775 639936522 743294539"/>
    </vehicle>
    <vehicle id="72" depart="36.00">
        <route edges="479568120 526887917 479770578 652549727 479770579 403795728 479766701 649392322 635689731 746690575 639934621 96670625#0 96670625#1 96670625#2 675079026 -538766109 120719658#0"/>
    </vehicle>
    <vehicle id="73" depart="36.50">
        <route edges="538767564 743279979 538767561#0 538767561#1 1122255696 479388631 635689173 96678021 479552717 1156275592 173896145#0 173896145#1 480227677 480227676#0 644626278#0"/>
    </vehicle>
    <vehicle id="74" depart="37.00">
        <route edges="1051771499 173896145#0 173896145#1 480227677 480227676#0 644626278#0 22278331#0"/>
    </vehicle>
    <vehicle id="75" depart="37.50">
        <route edges="96678021 479552717 634257155 655492366#0 655492366#1 655492366#2 96670628 655492363 538767575 635689735"/>
    </vehicle>
    <vehicle id="76" depart="38.00">
        <route edges="479612876 -538769201 -742170149 -538769212#1 -538769212#0 -646647827 -538769210 -448937538 -743255421 -743279978 -538767558 -647111334 -634722287 -538769218 -1038616655 -741980092 -741980772#1 -741980772#0 -741980771#0 538767552"/>
    </vehicle>
    <vehicle id="77" depart="38.50">
        <route edges="-741979379 639874635 741980771#1 741980772#1 479390110 479390113 746966173 120719659#0"/>
    </vehicle>
    <vehicle id="78" depart="39.00">
        <route edges="314385981 746653374 746655212 314385986 746961045 479390110 479390113 538766115 -538766111#1 -743297325 639936523 573713869"/>
    </vehicle>
    <vehicle id="79" depart="39.50">
        <route edges="120719659#1 746963951 634223813 634702969 746967062 479608893 538766115 120719658#0 120719658#1 120719658#2"/>
    </vehicle>
    <vehicle id="80" depart="40.00">
        <route edges="-639999881 -745356719 538766099 746714120 573704873#0 573704871 655644175 168241645 173166882#0 173166882#1 652027920 652027921#0 538766122 655696048 655696049 634702969 746967062 479608893 538766114 96677745 746960991 1156268462 538767555 634722286"/>
    </vehicle>
    <vehicle id="81" depart="40.50">
        <route edges="120719659#1 746963951 634223813 634275860 479608894 538766103 175878990#0 649538096 573713867 633796584#0 644626278#0 22278331#0 22278331#1 22278331#2 635470894 634255234 479388625 634257155 655492366#0 655492366#1 655492366#2 96670628 655492363 538767575 635689735 635689172 262819996 652296706 262819990 526887917 479770578 746702000"/>
    </vehicle>
    <vehicle id="82" depart="41.00">
        <route edges="742170149 538769201 742167351 479612875 479619179 668585466 652549727 479770579 403795728 479766701 649392322 96678021 479552717 1156275592 173896145#0 173896145#1 480227677 480227676#0 173896250#0 173166882#0 173166882#1 652027920 652027921#0 538766122 655696048 168242587 747369068 168242583 -22278659 -644922572 -747367551 -745327739 -740962221 -745349346 -639999881"/>
    </vehicle>
    <vehicle id="83" depart="41.50">
        <route edges="141428143#1 646400892 641071178 96670625#0 96670625#1 96670625#2 675079026 639568320 639568318 639568595"/>
    </vehicle>
    <vehicle id="84" depart="42.00">
        <route edges="120719658#0 159115037 644466857 675079026 639568320 639568318 639568595 96677745 -741980772#1 -741980772#0"/>
    </vehicle>
    <vehicle id="85" depart="42.50">
        <route edges="746976889#1 746976887 -538766111#1 -743297325 639936523 573713869 743297323 168242589 649538096 573713867 633796584#0 655641116 538766098#0 573704870#0"/>
    </vehicle>
    <vehicle id="86" depart="43.00">
        <route edges="512870222#0 644626278#0 22278331#0 22278331#1 22278331#2 635470894 634255234 479388625 634255233 655149206"/>
    </vehicle>
    <vehicle id="87" depart="43.50">
        <route edges="655641116 538766098#0 573704870#0 655571315 728236606 746714120 573704873#0 573704871 655644175 512870222#0 644626278#0 22278331#0 22278331#1 22278331#2 635470894 634255234 479388625 634257155 655492366#0 655492366#1 655492366#2 141428143#0 141428143#1 159115036#0 159115036#1 644466857 -670463578 -96670625#1"/>
    </vehicle>
    <vehicle id="88" depart="44.00">
        <route edges="-668798705 -747037548 -639568596 -479753340 -639568319 -675079025 -670463578 -96670625#1 -96670625#0 641071177#0 641071177#1 644466467#1 747039987#1 655492363 538767575 635689735 635689172 262819996 652296706 262819990 526887917 479770578 746702000 668585464 479770577 479612876"/>
    </vehicle>
    <vehicle id="89" depart="44.50">
        <route edges="479568120 526887917 479770578 652549727 479770579 403795728 479766701 649392322 96678021 479552717 1156275592 173896145#0 173896145#1 480227677"/>
    </vehicle>
    <vehicle id="90" depart="45.00">
        <route edges="644466857 675079026 639568320 639568318 639568595 96677745 746960991 746656963 -741979379 639874635"/>
    </vehicle>
    <vehicle id="91" depart="45.50">
        <route edges="96670625#2 675079026 639568320 639568318 639568595 479390113 746966173 120719659#0 120719659#1 746963951 634223813 634702969 746967062 -96670626 -747038554 -479552718 -668798705"/>
    </vehicle>
    <vehicle id="92" depart="46.00">
        <route edges="479390110 96677745 746960991 746656963 538767549 538770176 314385981"/>
    </vehicle>
    <vehicle id="93" depart="46.50">
        <route edges="742170149 538769201 742167351 479612875 479619179 668585466 652549727 479770579 403795728 479766701 649392322 96678021 479552717 1156275592 173896145#0 173896145#1 480227677 480227676#0 655641116 538766098#0 573704870#0 655571315 728236606 746714120 573704873#0 573704871 655644175 168241645"/>
    </vehicle>
    <vehicle id="94" depart="47.00">
        <route edges="-96670625#1 -96670625#0 641071177#0 641071177#1 644466467#1 747039987#1 655492363 538767575 635689735 635689172 262819996 652296706 652296707 479766701"/>
    </vehicle>
    <vehicle id="95" depart="47.50">
        <route edges="479568120 526887917 479770578 652549727 479770579 403795728 479766701 649392322 96678021 479552717 1156275592 173896145#0 173896145#1 480227677 480227676#0 173896250#0 173166882#0"/>
    </vehicle>
    <vehicle id="96" depart="48.00">
        <route edges="159115037 644466857 675079026 639568320 639568318 639568595 479390113 746966173 120719659#0 120719659#1 746963951"/>
    </vehicle>
    <vehicle id="97" depart="48.50">
        <route edges="479619180 479612875 479619179 668585466 652549727 479770579 403795728 479766701 649392322 635689731 746690575 746688152 634722287 647111334 538767558 639934188 743255421"/>
    </vehicle>
    <vehicle id="98" depart="49.00">
        <route edges="538769210 646647827 538769212#0 538769212#1 742170149 538769201 742167351 479612875 479619179 479770577 479612876 -538769201 -742170149 -538769212#1 -538769212#0"/>
    </vehicle>
    <vehicle id="99" depart="49.50">
        <route edges="96678446 538767552 538767549 741979001 314385988 737200024 741976425"/>
    </vehicle>
    <vehicle id="100" depart="50.00">
        <route edges="747369738 638912257 634702969 746967062 479608893 746966173"/>
    </vehicle>
    <vehicle id="101" depart="50.50">
        <route edges="741980771#1 741980772#1 479390110 479390113 746966173 120719659#0 120719659#1 746963951 634223813 638912261 747369068 168242583 -22278659 -644922572 -747367551 -745327739 -740962221 -745349346"/>
    </vehicle>
    <vehicle id="102" depart="51.00">
        <route edges="538766099 746714120 573704873#0 573704871 655644175 168241645 173166882#0 173166882#1 652027920 168242577#0 743297324 464985775 639936522 743294539 743294536 120719658#0"/>
    </vehicle>
    <vehicle id="103" depart="51.50">
        <route edges="479390106 466551641 1156268462 538767555 479753342 647111334 538767558 639934188 743255421 169421671 -169421671 -743255421 -743279978 -538767558 -647111334 -634722287"/>
    </vehicle>
    <vehicle id="104" depart="52.00">
        <route edges="449399358 747369067 747369738 638912257 634702969 746967062 479608893 538766115 120719658#0 159115037 175840209#0 175840209#1 641071178 96670625#0 96670625#1 96670625#2"/>
    </vehicle>
    <vehicle id="105" depart="52.50">
        <route edges="168242587 747369068 168242583 -22278659 -644922572 -747367551 -745327739 -740962221 -745349346 -639999881 -745356719 538766099 746714120 573704873#0 573704871 655644175 512870222#0 644626278#0 22278331#0 22278331#1 22278331#2 635470894 634255234 479388625 634255233 655149206"/>
    </vehicle>
    <vehicle id="106" depart="53.00">
        <route edges="479770577 479619180 479612875 479619179 668585466 652549727 479770579 403795728 479766701 649392322 635689731 746690575 639934621 96670625#0 96670625#1 96670625#2 675079026 639568320 639568318 639568595 747037550 747037547 639936516 479552719 747039014 479608893"/>
    </vehicle>
    <vehicle id="107" depart="53.50">
        <route edges="747368578 449399358 747369067 747369738 638912257 634275860 479608894 538766103 175878990#0 649538096 573713867 633796584#0 644626278#0 22278331#0 22278331#1 22278331#2 635470894 634255234 479388625 634257155 655492366#0 655492366#1 655492366#2 96670628 655492363 538767575 635689735 96678021"/>
    </vehicle>
    <vehicle id="108" depart="54.00">
        <route edges="538769212#1 742170149 538769201 742167351 479612875 479619179 668585466 652549727 479770579 403795728 479766701 649392322 96678021 479552717 634257155 655492366#0 655492366#1 655492366#2 141428143#0 141428143#1 646400892 641071178"/>
    </vehicle>
    <vehicle id="109" depart="54.50">
        <route edges="-743281343 -675079025 175840210 175840209#0"/>
    </vehicle>
    <vehicle id="110" depart="55.00">
        <route edges="747369738 638912257 638912261 747369068 168242583 -22278659 -644922572 -747367551 -745327739 -740962221 -745349346 -639999881 -745356719 538766099 746714120 573704873#0"/>
    </vehicle>
    <vehicle id="111" depart="55.50">
        <route edges="538767575 262819992 746690575 746688152 634722287 647111334"/>
    </vehicle>
    <vehicle id="112" depart="56.00">
        <route edges="-538769218 -743281343 -538766109 -538766111#1 -743297325 639936523 573713869 743297323 168242589 649538096 573713867"/>
    </vehicle>
    <vehicle id="113" depart="56.50">
        <route edges="538766115 538766109 639568320 639568318 639568595 96677745 746960991 746656963 -741979379 639874635 741980771#1 741980772#1"/>