<?xml version="1.0" encoding="UTF-8"?>

<!-- generated on 2024-06-06 16:33:58.811660 by osmWebWizard.py UNKNOWN
<configuration>
    <net-file value="/yxm/code/MagicDriveLimSim/2024-06-06-16-33-53/osm.net.xml.gz"/>
    <output-trip-file value="/yxm/code/MagicDriveLimSim/2024-06-06-16-33-53/osm.passenger.trips.xml"/>
    <route-file value="/yxm/code/MagicDriveLimSim/2024-06-06-16-33-53/osm.passenger.rou.xml"/>
    <prefix value="veh"/>
    <trip-attributes value="departLane=&quot;best&quot;"/>
    <fringe-start-attributes value="departSpeed=&quot;max&quot;"/>
    <vehicle-class value="passenger"/>
    <lanes value="True"/>
    <fringe-factor value="5"/>
    <allow-fringe.min-length value="1000.0"/>
    <via-edge-types value="highway.motorway,highway.motorway_link,highway.trunk_link,highway.primary_link,highway.secondary_link,highway.tertiary_link"/>
    <min-distance value="300.0"/>
    <min-distance.fringe value="10.0"/>
    <remove-loops value="True"/>
    <validate value="True"/>
    <insertion-density value="12.0"/>
</configuration>
-->

<!-- generated on 2024-06-06 16:33:58 by Eclipse SUMO duarouter Version 1.20.0
<configuration xmlns:xsi="http://www.w3.org/2001/XMLSchema-instance" xsi:noNamespaceSchemaLocation="http://sumo.dlr.de/xsd/duarouterConfiguration.xsd">

    <input>
        <net-file value="/yxm/code/MagicDriveLimSim/2024-06-06-16-33-53/osm.net.xml.gz"/>
        <route-files value="/yxm/code/MagicDriveLimSim/2024-06-06-16-33-53/osm.passenger.trips.xml"/>
    </input>

    <output>
        <output-file value="/yxm/code/MagicDriveLimSim/2024-06-06-16-33-53/osm.passenger.trips.xml.tmp"/>
        <alternatives-output value="NUL"/>
        <write-trips value="true"/>
    </output>

    <processing>
        <remove-loops value="true"/>
    </processing>

    <time>
        <begin value="0.0"/>
        <end value="3600.0"/>
    </time>

    <report>
        <no-warnings value="true"/>
        <ignore-errors value="true"/>
        <no-step-log value="true"/>
    </report>

</configuration>
-->

<routes xmlns:xsi="http://www.w3.org/2001/XMLSchema-instance" xsi:noNamespaceSchemaLocation="http://sumo.dlr.de/xsd/routes_file.xsd">
    <vType id="veh_passenger" vClass="passenger"/>
    <trip id="veh0" type="veh_passenger" depart="0.00" departLane="best" from="640209013" to="-538769200"/>
    <trip id="veh1" type="veh_passenger" depart="5.35" departLane="best" from="479552717" to="175878990#0"/>
    <trip id="veh2" type="veh_passenger" depart="10.69" departLane="best" departSpeed="max" from="655555611" to="639936523"/>
    <trip id="veh3" type="veh_passenger" depart="16.04" departLane="best" from="745013850" to="-742167351"/>
    <trip id="veh4" type="veh_passenger" depart="21.38" departLane="best" from="-333374586" to="571466827#0"/>
    <trip id="veh5" type="veh_passenger" depart="26.73" departLane="best" from="-538769210" to="173896144"/>
    <trip id="veh6" type="veh_passenger" depart="32.08" departLane="best" from="399017457" to="152169940"/>
    <trip id="veh7" type="veh_passenger" depart="37.42" departLane="best" from="655809331" to="-22278659"/>
    <trip id="veh8" type="veh_passenger" depart="42.77" departLane="best" from="655809330" to="640209014#1"/>
    <trip id="veh9" type="veh_passenger" depart="48.12" departLane="best" departSpeed="max" from="493592535" to="161886045"/>
    <trip id="veh10" type="veh_passenger" depart="53.46" departLane="best" departSpeed="max" from="75007286" to="634257155"/>
    <trip id="veh11" type="veh_passenger" depart="58.81" departLane="best" from="-747034361" to="-746654345"/>
    <trip id="veh12" type="veh_passenger" depart="64.15" departLane="best" departSpeed="max" from="715670750" to="634255234"/>
    <trip id="veh13" type="veh_passenger" depart="69.50" departLane="best" from="655809330" to="649538096"/>
    <trip id="veh14" type="veh_passenger" depart="74.85" departLane="best" from="675913205" to="634700289"/>
    <trip id="veh15" type="veh_passenger" depart="80.19" departLane="best" from="741897411" to="173896250#0"/>
    <trip id="veh16" type="veh_passenger" depart="85.54" departLane="best" from="652549727" to="-639568319"/>
    <trip id="veh17" type="veh_passenger" depart="90.88" departLane="best" from="403795728" to="512870219"/>
    <trip id="veh18" type="veh_passenger" depart="96.23" departLane="best" from="746961045" to="175878991"/>
    <trip id="veh20" type="veh_passenger" depart="106.92" departLane="best" from="-640196567#0" to="479766702#3"/>
    <trip id="veh21" type="veh_passenger" depart="112.27" departLane="best" from="479390106" to="747369738"/>
    <trip id="veh22" type="veh_passenger" depart="117.61" departLane="best" departSpeed="max" from="161888208" to="584325662"/>
    <trip id="veh23" type="veh_passenger" depart="122.96" departLane="best" from="96670625#0" to="635688477"/>
    <trip id="veh24" type="veh_passenger" depart="128.31" departLane="best" from="634317050" to="640189036"/>
    <trip id="veh25" type="veh_passenger" depart="133.65" departLane="best" from="709359201" to="655492366#1"/>
    <trip id="veh26" type="veh_passenger" depart="139.00" departLane="best" from="403795728" to="-584325665"/>
    <trip id="veh27" type="veh_passenger" depart="144.35" departLane="best" from="314385981" to="75007281"/>
    <trip id="veh28" type="veh_passenger" depart="149.69" departLane="best" from="741979001" to="121762749"/>
    <trip id="veh30" type="veh_passenger" depart="160.38" departLane="best" from="746963951" to="538767561#0"/>
    <trip id="veh31" type="veh_passenger" depart="165.73" departLane="best" from="479388631" to="22278331#1"/>
    <trip id="veh32" type="veh_passenger" depart="171.08" departLane="best" from="634700289" to="262819984"/>
    <trip id="veh33" type="veh_passenger" depart="176.42" departLane="best" from="635658138" to="538767549"/>
    <trip id="veh34" type="veh_passenger" depart="181.77" departLane="best" departSpeed="max" from="538766125" to="175840209#0"/>
    <trip id="veh36" type="veh_passenger" depart="192.46" departLane="best" from="314385983" to="-639568596"/>
    <trip id="veh37" type="veh_passenger" depart="197.81" departLane="best" from="655799772" to="538766098#0"/>
    <trip id="veh38" type="veh_passenger" depart="203.15" departLane="best" from="-671213316" to="480227676#0"/>
    <trip id="veh39" type="veh_passenger" depart="208.50" departLane="best" from="96678021" to="573272648#1"/>
    <trip id="veh40" type="veh_passenger" depart="213.85" departLane="best" departSpeed="max" from="75007286" to="728236606"/>
    <trip id="veh41" type="veh_passenger" depart="219.19" departLane="best" from="-464985741" to="646400892"/>
    <trip id="veh42" type="veh_passenger" depart="224.54" departLane="best" from="651057164" to="573272651"/>
    <trip id="veh43" type="veh_passenger" depart="229.88" departLane="best" from="479390106" to="635688477"/>
    <trip id="veh44" type="veh_passenger" depart="235.23" departLane="best" from="571801839" to="75007288"/>
    <trip id="veh45" type="veh_passenger" depart="240.58" departLane="best" from="741979001" to="262819984"/>
    <trip id="veh46" type="veh_passenger" depart="245.92" departLane="best" from="573713867" to="173166844"/>
    <trip id="veh47" type="veh_passenger" depart="251.27" departLane="best" from="479766702#1" to="635688477"/>
    <trip id="veh48" type="veh_passenger" depart="256.61" departLane="best" from="639568318" to="-161886043"/>
    <trip id="veh49" type="veh_passenger" depart="261.96" departLane="best" departSpeed="max" from="655602240" to="573701671"/>
    <trip id="veh50" type="veh_passenger" depart="267.31" departLane="best" from="655696049" to="573272648#1"/>
    <trip id="veh51" type="veh_passenger" depart="272.65" departLane="best" from="-1038616655" to="479388625"/>
    <trip id="veh52" type="veh_passenger" depart="278.00" departLane="best" from="-538766109" to="747039014"/>
    <trip id="veh53" type="veh_passenger" depart="283.35" departLane="best" from="741980772#1" to="667183789"/>
    <trip id="veh54" type="veh_passenger" depart="288.69" departLane="best" from="741980771#1" to="75007285"/>
    <trip id="veh55" type="veh_passenger" depart="294.04" departLane="best" from="-743281343" to="571466438"/>
    <trip id="veh56" type="veh_passenger" depart="299.38" departLane="best" from="655644175" to="1156275592"/>
    <trip id="veh57" type="veh_passenger" depart="304.73" departLane="best" departSpeed="max" from="571801847" to="573704883"/>
    <trip id="veh58" type="veh_passenger" depart="310.08" departLane="best" from="479388631" to="741980772#1"/>
    <trip id="veh59" type="veh_passenger" depart="315.42" departLane="best" from="538767564" to="173896250#0"/>
    <trip id="veh60" type="veh_passenger" depart="320.77" departLane="best" from="634223622" to="649538096"/>
    <trip id="veh61" type="veh_passenger" depart="326.11" departLane="best" from="22278331#2" to="479167606"/>
    <trip id="veh62" type="veh_passenger" depart="331.46" departLane="best" from="479390110" to="635689735"/>
    <trip id="veh63" type="veh_passenger" depart="336.81" departLane="best" from="1156275592" to="175878991"/>
    <trip id="veh64" type="veh_passenger" depart="342.15" departLane="best" from="-682810247" to="635755157"/>
    <trip id="veh65" type="veh_passenger" depart="347.50" departLane="best" from="737200024" to="-674356255"/>
    <trip id="veh66" type="veh_passenger" depart="352.84" departLane="best" from="453769185" to="639874638"/>
    <trip id="veh67" type="veh_passenger" depart="358.19" departLane="best" from="314385986" to="120719658#1"/>
    <trip id="veh68" type="veh_passenger" depart="363.54" departLane="best" from="747369068" to="619029854#1"/>
    <trip id="veh69" type="veh_passenger" depart="368.88" departLane="best" departSpeed="max" from="571801847" to="655571315"/>
    <trip id="veh70" type="veh_passenger" depart="374.23" departLane="best" from="655809330" to="173166844"/>
    <trip id="veh71" type="veh_passenger" depart="379.58" departLane="best" from="633617700" to="538766114"/>
    <trip id="veh72" type="veh_passenger" depart="384.92" departLane="best" from="538767564" to="-538769200"/>
    <trip id="veh73" type="veh_passenger" depart="390.27" departLane="best" departSpeed="max" from="655555611" to="746981306"/>
    <trip id="veh74" type="veh_passenger" depart="395.61" departLane="best" from="824418429" to="645334436"/>
    <trip id="veh75" type="veh_passenger" depart="400.96" departLane="best" departSpeed="max" from="538766125" to="634257155"/>
    <trip id="veh76" type="veh_passenger" depart="406.31" departLane="best" from="741897411" to="22278331#2"/>
    <trip id="veh77" type="veh_passenger" depart="411.65" departLane="best" from="175878990#0" to="538767548"/>
    <trip id="veh79" type="veh_passenger" depart="422.34" departLane="best" from="466551641" to="746976889#1"/>
    <trip id="veh80" type="veh_passenger" depart="427.69" departLane="best" from="571466820" to="730057173"/>
    <trip id="veh81" type="veh_passenger" depart="433.04" departLane="best" from="634257155" to="-644688225"/>
    <trip id="veh82" type="veh_passenger" depart="438.38" departLane="best" from="-96678450" to="668585466"/>
    <trip id="veh83" type="veh_passenger" depart="443.73" departLane="best" departSpeed="max" from="75007286" to="746981306"/>
    <trip id="veh84" type="veh_passenger" depart="449.08" departLane="best" departSpeed="max" from="715670750" to="168242583"/>
    <trip id="veh85" type="veh_passenger" depart="454.42" departLane="best" from="573701671" to="173896250#0"/>
    <trip id="veh86" type="veh_passenger" depart="459.77" departLane="best" departSpeed="max" from="538766125" to="-646881300"/>
    <trip id="veh87" type="veh_passenger" depart="465.11" departLane="best" from="538766098#0" to="-96667082"/>
    <trip id="veh88" type="veh_passenger" depart="470.46" departLane="best" from="479388631" to="655571315"/>
    <trip id="veh89" type="veh_passenger" depart="475.81" departLane="best" from="571801840#0" to="538766098#0"/>
    <trip id="veh90" type="veh_passenger" depart="481.15" departLane="best" departSpeed="max" from="75007286" to="96677745"/>
    <trip id="veh91" type="veh_passenger" depart="486.50" departLane="best" from="634275860" to="646203554"/>
    <trip id="veh92" type="veh_passenger" depart="491.84" departLane="best" from="161886051" to="464985737"/>
    <trip id="veh93" type="veh_passenger" depart="497.19" departLane="best" departSpeed="max" from="75007286" to="173896250#0"/>
    <trip id="veh94" type="veh_passenger" depart="502.54" departLane="best" from="664015156" to="633808106"/>
    <trip id="veh95" type="veh_passenger" depart="507.88" departLane="best" from="573713869" to="690616812"/>
    <trip id="veh96" type="veh_passenger" depart="513.23" departLane="best" from="161888205#1" to="75007288"/>
    <trip id="veh97" type="veh_passenger" depart="518.57" departLane="best" from="746961045" to="173166844"/>
    <trip id="veh98" type="veh_passenger" depart="523.92" departLane="best" from="635755157" to="639936522"/>
    <trip id="veh100" type="veh_passenger" depart="534.61" departLane="best" from="744983482" to="22278331#1"/>
    <trip id="veh101" type="veh_passenger" depart="539.96" departLane="best" from="635755157" to="634702969"/>
    <trip id="veh102" type="veh_passenger" depart="545.31" departLane="best" from="538767561#0" to="633808106"/>
    <trip id="veh103" type="veh_passenger" depart="550.65" departLane="best" from="633796584#0" to="747369068"/>
    <trip id="veh104" type="veh_passenger" depart="556.00" departLane="best" from="22278541" to="645334437"/>
    <trip id="veh106" type="veh_passenger" depart="566.69" departLane="best" from="649392322" to="464985775"/>
    <trip id="veh107" type="veh_passenger" depart="572.04" departLane="best" from="479772182" to="652162102"/>
    <trip id="veh108" type="veh_passenger" depart="577.38" departLane="best" from="-684368039" to="538767561#0"/>
    <trip id="veh109" type="veh_passenger" depart="582.73" departLane="best" from="96678446" to="96678021"/>
    <trip id="veh110" type="veh_passenger" depart="588.07" departLane="best" from="-730057173" to="173896250#0"/>
    <trip id="veh111" type="veh_passenger" depart="593.42" departLane="best" from="479388631" to="747369067"/>
    <trip id="veh112" type="veh_passenger" depart="598.77" departLane="best" from="742170149" to="-743297325"/>
    <trip id="veh113" type="veh_passenger" depart="604.11" departLane="best" from="512870222#0" to="161888205#0"/>
    <trip id="veh115" type="veh_passenger" depart="614.81" departLane="best" from="639874635" to="96668755"/>
    <trip id="veh116" type="veh_passenger" depart="620.15" departLane="best" from="-528519923" to="464985775"/>
    <trip id="veh117" type="veh_passenger" depart="625.50" departLane="best" from="646400892" to="747369738"/>
    <trip id="veh118" type="veh_passenger" depart="630.84" departLane="best" from="479371790" to="1007910056"/>
    <trip id="veh119" type="veh_passenger" depart="636.19" departLane="best" from="1007910055" to="573713867"/>
    <trip id="veh120" type="veh_passenger" depart="641.54" departLane="best" from="479537328" to="634255234"/>
    <trip id="veh121" type="veh_passenger" depart="646.88" departLane="best" from="655492366#0" to="173896144"/>
    <trip id="veh122" type="veh_passenger" depart="652.23" departLane="best" from="640190447" to="262819996"/>
    <trip id="veh123" type="veh_passenger" depart="657.57" departLane="best" from="573704870#0" to="746702000"/>
    <trip id="veh124" type="veh_passenger" depart="662.92" departLane="best" departSpeed="max" from="715670750" to="-743297325"/>
    <trip id="veh125" type="veh_passenger" depart="668.27" departLane="best" from="538767564" to="333374586"/>
    <trip id="veh126" type="veh_passenger" depart="673.61" departLane="best" from="-152169940" to="655219185"/>
    <trip id="veh127" type="veh_passenger" depart="678.96" departLane="best" from="640209011" to="262819984"/>
    <trip id="veh128" type="veh_passenger" depart="684.30" departLane="best" departSpeed="max" from="655555611" to="573704883"/>
    <trip id="veh129" type="veh_passenger" depart="689.65" departLane="best" from="538769201" to="-453769185"/>
    <trip id="veh130" type="veh_passenger" depart="695.00" departLane="best" from="746690575" to="573704871"/>
    <trip id="veh131" type="veh_passenger" depart="700.34" departLane="best" from="161886045" to="1156275592"/>
    <trip id="veh132" type="veh_passenger" depart="705.69" departLane="best" from="479770578" to="746656963"/>
    <trip id="veh133" type="veh_passenger" depart="711.04" departLane="best" from="655799774#0" to="728236606"/>
    <trip id="veh134" type="veh_passenger" depart="716.38" departLane="best" from="746655212" to="173896145#1"/>
    <trip id="veh135" type="veh_passenger" depart="721.73" departLane="best" from="466551641" to="-747367551"/>
    <trip id="veh136" type="veh_passenger" depart="727.07" departLane="best" departSpeed="max" from="655702302" to="744983481"/>
    <trip id="veh137" type="veh_passenger" depart="732.42" departLane="best" from="161886051" to="747039987#1"/>
    <trip id="veh138" type="veh_passenger" depart="737.77" departLane="best" departSpeed="max" from="741976427" to="758289173"/>
    <trip id="veh139" type="veh_passenger" depart="743.11" departLane="best" from="655809332" to="743297324"/>
    <trip id="veh141" type="veh_passenger" depart="753.80" departLane="best" departSpeed="max" from="493592535" to="747058652"/>
    <trip id="veh142" type="veh_passenger" depart="759.15" departLane="best" from="655809328" to="737200024"/>
    <trip id="veh143" type="veh_passenger" depart="764.50" departLane="best" departSpeed="max" from="655702302" to="96668827"/>
    <trip id="veh144" type="veh_passenger" depart="769.84" departLane="best" departSpeed="max" from="741976427" to="711062910"/>
    <trip id="veh145" type="veh_passenger" depart="775.19" departLane="best" from="399017458" to="655809329"/>
    <trip id="veh146" type="veh_passenger" depart="780.54" departLane="best" from="571801840#2" to="466551639"/>
    <trip id="veh147" type="veh_passenger" depart="785.88" departLane="best" from="655799774#0" to="175878991"/>
    <trip id="veh148" type="veh_passenger" depart="791.23" departLane="best" from="-538768941" to="173166882#0"/>
    <trip id="veh152" type="veh_passenger" depart="812.61" departLane="best" from="758289173" to="573272651"/>
    <trip id="veh153" type="veh_passenger" depart="817.96" departLane="best" from="747369738" to="1007910056"/>
    <trip id="veh154" type="veh_passenger" depart="823.30" departLane="best" departSpeed="max" from="75007286" to="173166844"/>
    <trip id="veh155" type="veh_passenger" depart="828.65" departLane="best" departSpeed="max" from="75007286" to="262819996"/>
    <trip id="veh156" type="veh_passenger" depart="834.00" departLane="best" from="1007910055" to="538766115"/>
    <trip id="veh158" type="veh_passenger" depart="844.69" departLane="best" from="538766103" to="633796584#0"/>
    <trip id="veh159" type="veh_passenger" depart="850.04" departLane="best" from="479371791" to="-644688223"/>
    <trip id="veh161" type="veh_passenger" depart="860.73" departLane="best" from="634223622" to="646391290"/>
    <trip id="veh162" type="veh_passenger" depart="866.07" departLane="best" departSpeed="max" from="655555611" to="639934188"/>
    <trip id="veh163" type="veh_passenger" depart="871.42" departLane="best" from="646625211" to="479390106"/>
    <trip id="veh164" type="veh_passenger" depart="876.77" departLane="best" from="479770579" to="690616811"/>
    <trip id="veh165" type="veh_passenger" depart="882.11" departLane="best" from="655492366#1" to="464985775"/>
    <trip id="veh166" type="veh_passenger" depart="887.46" departLane="best" from="479770578" to="512870219"/>
    <trip id="veh167" type="veh_passenger" depart="892.80" departLane="best" departSpeed="max" from="538766125" to="-453769185"/>
    <trip id="veh168" type="veh_passenger" depart="898.15" departLane="best" from="120719658#2" to="533268135"/>
    <trip id="veh169" type="veh_passenger" depart="903.50" departLane="best" from="747681285" to="639999881"/>
    <trip id="veh170" type="veh_passenger" depart="908.84" departLane="best" from="746688152" to="-634317058"/>
    <trip id="veh171" type="veh_passenger" depart="914.19" departLane="best" from="479766702#2" to="573704873#0"/>
    <trip id="veh172" type="veh_passenger" depart="919.53" departLane="best" from="-1038616655" to="403795728"/>
    <trip id="veh173" type="veh_passenger" depart="924.88" departLane="best" from="538769212#0" to="173896250#0"/>
    <trip id="veh176" type="veh_passenger" depart="940.92" departLane="best" departSpeed="max" from="571801847" to="746688152"/>
    <trip id="veh177" type="veh_passenger" depart="946.27" departLane="best" from="655799774#0" to="168243073"/>
    <trip id="veh179" type="veh_passenger" depart="956.96" departLane="best" from="640190446" to="479537328"/>
    <trip id="veh180" type="veh_passenger" depart="962.30" departLane="best" from="667183789" to="652162102"/>
    <trip id="veh181" type="veh_passenger" depart="967.65" departLane="best" from="649538096" to="175878991"/>
    <trip id="veh182" type="veh_passenger" depart="973.00" departLane="best" from="22278331#1" to="-538769200"/>
    <trip id="veh183" type="veh_passenger" depart="978.34" departLane="best" from="46648189" to="538769212#0"/>
    <trip id="veh184" type="veh_passenger" depart="983.69" departLane="best" departSpeed="max" from="715670750" to="333374585"/>
    <trip id="veh185" type="veh_passenger" depart="989.03" departLane="best" from="538767549" to="635755157"/>
    <trip id="veh186" type="veh_passenger" depart="994.38" departLane="best" from="168243073" to="640209013"/>
    <trip id="veh187" type="veh_passenger" depart="999.73" departLane="best" from="538766099" to="22278331#0"/>
    <trip id="veh188" type="veh_passenger" depart="1005.07" departLane="best" from="644922572" to="169421671"/>
    <trip id="veh189" type="veh_passenger" depart="1010.42" departLane="best" from="655571315" to="655219185"/>
    <trip id="veh190" type="veh_passenger" depart="1015.77" departLane="best" from="-96678450" to="538766099"/>
    <trip id="veh191" type="veh_passenger" depart="1021.11" departLane="best" from="173896145#0" to="75007288"/>
    <trip id="veh192" type="veh_passenger" depart="1026.46" departLane="best" from="633617699" to="-644688223"/>
    <trip id="veh193" type="veh_passenger" depart="1031.80" departLane="best" from="466551639" to="690616811"/>
    <trip id="veh194" type="veh_passenger" depart="1037.15" departLane="best" from="571801840#0" to="655696049"/>
    <trip id="veh195" type="veh_passenger" depart="1042.50" departLane="best" from="635755157" to="75007285"/>
    <trip id="veh196" type="veh_passenger" depart="1047.84" departLane="best" from="745013850" to="-634317050"/>
    <trip id="veh197" type="veh_passenger" depart="1053.19" departLane="best" from="655492366#1" to="571466827#0"/>
    <trip id="veh199" type="veh_passenger" depart="1063.88" departLane="best" from="746653374" to="652027920"/>
    <trip id="veh200" type="veh_passenger" depart="1069.23" departLane="best" departSpeed="max" from="571801847" to="262819984"/>
    <trip id="veh201" type="veh_passenger" depart="1074.57" departLane="best" from="46648193" to="635688477"/>
    <trip id="veh202" type="veh_passenger" depart="1079.92" departLane="best" from="655644175" to="571801843"/>
    <trip id="veh203" type="veh_passenger" depart="1085.26" departLane="best" from="640189039" to="314385988"/>
    <trip id="veh204" type="veh_passenger" depart="1090.61" departLane="best" from="-741980092" to="403795728"/>
    <trip id="veh205" type="veh_passenger" depart="1095.96" departLane="best" from="479537328" to="479371791"/>
    <trip id="veh206" type="veh_passenger" depart="1101.30" departLane="best" from="634223622" to="120719659#1"/>
    <trip id="veh207" type="veh_passenger" depart="1106.65" departLane="best" from="655148853" to="-667183789"/>
    <trip id="veh208" type="veh_passenger" depart="1112.00" departLane="best" departSpeed="max" from="538766125" to="573704870#0"/>
    <trip id="veh209" type="veh_passenger" depart="1117.34" departLane="best" from="538767555" to="173896144"/>
    <trip id="veh210" type="veh_passenger" depart="1122.69" departLane="best" from="538767561#0" to="746702000"/>
    <trip id="veh211" type="veh_passenger" depart="1128.03" departLane="best" from="635658138" to="640209013"/>
    <trip id="veh212" type="veh_passenger" depart="1133.38" departLane="best" from="746714120" to="655149206"/>
    <trip id="veh213" type="veh_passenger" depart="1138.73" departLane="best" from="538766098#0" to="169421671"/>
    <trip id="veh214" type="veh_passenger" depart="1144.07" departLane="best" departSpeed="max" from="493592535" to="652296706"/>
    <trip id="veh215" type="veh_passenger" depart="1149.42" departLane="best" departSpeed="max" from="715670750" to="75007288"/>
    <trip id="veh216" type="veh_passenger" depart="1154.76" departLane="best" from="538767561#0" to="652027921#0"/>
    <trip id="veh217" type="veh_passenger" depart="1160.11" departLane="best" from="399017457" to="175840209#0"/>
    <trip id="veh218" type="veh_passenger" depart="1165.46" departLane="best" from="541928632" to="-538769212#1"/>
    <trip id="veh219" type="veh_passenger" depart="1170.80" departLane="best" departSpeed="max" from="493592535" to="640186769"/>
    <trip id="veh220" type="veh_passenger" depart="1176.15" departLane="best" departSpeed="max" from="538766125" to="161888205#1"/>
    <trip id="veh221" type="veh_passenger" depart="1181.50" departLane="best" departSpeed="max" from="571801847" to="1156275592"/>
    <trip id="veh222" type="veh_passenger" depart="1186.84" departLane="best" from="640186769" to="-538769210"/>
    <trip id="veh223" type="veh_passenger" depart="1192.19" departLane="best" from="538766118#1" to="584325662"/>
    <trip id="veh224" type="veh_passenger" depart="1197.53" departLane="best" from="538769212#0" to="635689172"/>
    <trip id="veh225" type="veh_passenger" depart="1202.88" departLane="best" from="121762752" to="538767561#1"/>
    <trip id="veh226" type="veh_passenger" depart="1208.23" departLane="best" from="-646203554" to="584325662"/>
    <trip id="veh227" type="veh_passenger" depart="1213.57" departLane="best" from="314385981" to="479388631"/>
    <trip id="veh228" type="veh_passenger" depart="1218.92" departLane="best" departSpeed="max" from="655602240" to="584325662"/>
    <trip id="veh229" type="veh_passenger" depart="1224.26" departLane="best" from="655571315" to="667183793"/>
    <trip id="veh230" type="veh_passenger" depart="1229.61" departLane="best" from="479371790" to="-741979379"/>
    <trip id="veh231" type="veh_passenger" depart="1234.96" departLane="best" from="-538766109" to="573701671"/>
    <trip id="veh232" type="veh_passenger" depart="1240.30" departLane="best" from="-96678450" to="479608893"/>
    <trip id="veh233" type="veh_passenger" depart="1245.65" departLane="best" from="644688223" to="652296706"/>
    <trip id="veh234" type="veh_passenger" depart="1251.00" departLane="best" from="75007285" to="173896144"/>
    <trip id="veh235" type="veh_passenger" depart="1256.34" departLane="best" from="-538766111#1" to="-161886043"/>
    <trip id="veh236" type="veh_passenger" depart="1261.69" departLane="best" from="120719658#1" to="639874638"/>
    <trip id="veh237" type="veh_passenger" depart="1267.03" departLane="best" from="634702969" to="173896274"/>
    <trip id="veh238" type="veh_passenger" depart="1272.38" departLane="best" from="652296707" to="655149206"/>
    <trip id="veh239" type="veh_passenger" depart="1277.73" departLane="best" from="168243073" to="634257155"/>
    <trip id="veh240" type="veh_passenger" depart="1283.07" departLane="best" from="655560395" to="1007910055"/>
    <trip id="veh241" type="veh_passenger" depart="1288.42" departLane="best" from="667183793" to="75007288"/>
    <trip id="veh242" type="veh_passenger" depart="1293.76" departLane="best" from="1007910055" to="-538769201"/>
    <trip id="veh243" type="veh_passenger" depart="1299.11" departLane="best" from="479770579" to="639999881"/>
    <trip id="veh245" type="veh_passenger" depart="1309.80" departLane="best" from="652027921#0" to="635658137"/>
    <trip id="veh246" type="veh_passenger" depart="1315.15" departLane="best" from="-96668827" to="655492363"/>
    <trip id="veh247" type="veh_passenger" depart="1320.49" departLane="best" departSpeed="max" from="715670750" to="634255233"/>
    <trip id="veh250" type="veh_passenger" depart="1336.53" departLane="best" from="584325660" to="479568120"/>
    <trip id="veh251" type="veh_passenger" depart="1341.88" departLane="best" departSpeed="max" from="715670750" to="655809331"/>
    <trip id="veh252" type="veh_passenger" depart="1347.23" departLane="best" from="-96670626" to="75007288"/>
    <trip id="veh253" type="veh_passenger" depart="1352.57" departLane="best" from="-640196567#0" to="-664015156"/>
    <trip id="veh254" type="veh_passenger" depart="1357.92" departLane="best" departSpeed="max" from="655555611" to="75007288"/>
    <trip id="veh255" type="veh_passenger" depart="1363.26" departLane="best" from="479390113" to="655799774#0"/>
    <trip id="veh256" type="veh_passenger" depart="1368.61" departLane="best" from="634223622" to="571466438"/>
    <trip id="veh257" type="veh_passenger" depart="1373.96" departLane="best" from="540492951" to="649538096"/>
    <trip id="veh258" type="veh_passenger" depart="1379.30" departLane="best" from="479390110" to="690616812"/>
    <trip id="veh259" type="veh_passenger" depart="1384.65" departLane="best" from="-743255421" to="22278331#0"/>
    <trip id="veh261" type="veh_passenger" depart="1395.34" departLane="best" from="538766098#0" to="-538769212#1"/>
    <trip id="veh262" type="veh_passenger" depart="1400.69" departLane="best" departSpeed="max" from="715670750" to="173166844"/>