<?xml version="1.0" encoding="UTF-8"?>

<!-- generated on 2024-07-23 15:37:25 by Eclipse SUMO netedit Version v1_15_0+0596-65718631903
<configuration xmlns:xsi="http://www.w3.org/2001/XMLSchema-instance" xsi:noNamespaceSchemaLocation="http://sumo.dlr.de/xsd/netconvertConfiguration.xsd">

    <input>
        <sumo-net-file value="./osm.net.xml"/>
    </input>

    <output>
        <output-file value="./osm.net.xml"/>
    </output>

    <processing>
        <geometry.min-radius.fix.railways value="false"/>
        <geometry.max-grade.fix value="false"/>
        <offset.disable-normalization value="true"/>
        <lefthand value="0"/>
    </processing>

    <junctions>
        <no-turnarounds value="true"/>
        <junctions.corner-detail value="5"/>
        <junctions.limit-turn-speed value="5.50"/>
        <rectangular-lane-cut value="1"/>
    </junctions>

    <pedestrian>
        <walkingareas value="0"/>
    </pedestrian>

</configuration>
-->

<net version="1.9" junctionCornerDetail="5" rectangularLaneCut="true" limitTurnSpeed="5.50" xmlns:xsi="http://www.w3.org/2001/XMLSchema-instance" xsi:noNamespaceSchemaLocation="http://sumo.dlr.de/xsd/net_file.xsd">

    <location netOffset="270.79,200.32" convBoundary="0.00,0.00,473.10,399.44" origBoundary="0.000000,0.000000,0.000000,0.000000" projParameter="+proj=tmerc +lat_0=0 +lon_0=0 +k=1 +x_0=0 +y_0=0 +datum=WGS84 +units=m +geoidgrids=egm96_15.gtx +vunits=m +no_defs "/>

    <edge id=":1126_0" function="internal">
        <lane id=":1126_0_0" index="0" disallow="all" speed="1.39" length="30.19" width="0.50" shape="235.20,297.26 205.01,297.31">
            <param key="origId" value="1141_-3"/>
        </lane>
    </edge>
    <edge id=":1126_1" function="internal">
        <lane id=":1126_1_0" index="0" disallow="pedestrian tram rail_urban rail rail_electric rail_fast ship" speed="10.02" length="18.98" width="3.50" shape="235.20,295.26 232.00,296.18,0.01 229.27,298.93,0.02 226.99,303.50,0.04 225.16,309.91,0.06">
            <param key="origId" value="1201_-1"/>
            <param key="signalID" value="2393"/>
        </lane>
    </edge>
    <edge id=":1126_2" function="internal">
        <lane id=":1126_2_0" index="0" disallow="pedestrian tram rail_urban rail rail_electric rail_fast ship" speed="13.89" length="30.19" width="3.50" shape="235.20,295.26 205.01,295.31">
            <param key="origId" value="1141_-2"/>
            <param key="signalID" value="2394"/>
        </lane>
        <lane id=":1126_2_1" index="1" disallow="pedestrian tram rail_urban rail rail_electric rail_fast ship" speed="13.89" length="30.19" width="3.50" shape="235.19,291.76 205.01,291.81">
            <param key="origId" value="1141_-1"/>
            <param key="signalID" value="2394"/>
        </lane>
    </edge>
    <edge id=":1126_4" function="internal">
        <lane id=":1126_4_0" index="0" disallow="pedestrian tram rail_urban rail rail_electric rail_fast ship" speed="10.72" length="26.35" width="3.50" shape="235.19,291.76 228.24,290.72,0.02 223.28,287.57,0.03 220.33,282.32,0.04 219.38,274.96,0.06">
            <param key="origId" value="1182_-1"/>
            <param key="signalID" value="2394 2396"/>
        </lane>
    </edge>
    <edge id=":1126_5" function="internal">
        <lane id=":1126_5_0" index="0" disallow="all" speed="1.39" length="35.49" width="0.50" shape="228.38,275.01,0.06 228.67,285.56,0.06 229.13,292.82,0.06 228.89,300.01,0.06 227.12,310.33,0.06">
            <param key="origId" value="1291_3"/>
        </lane>
    </edge>
    <edge id=":1126_6" function="internal">
        <lane id=":1126_6_0" index="0" disallow="pedestrian tram rail_urban rail rail_electric rail_fast ship" speed="8.21" length="15.00" width="3.50" shape="226.38,275.00,0.06 226.91,279.28,0.04 228.55,282.33,0.03 231.31,284.15,0.02 235.18,284.76">
            <param key="origId" value="1174_1"/>
        </lane>
    </edge>
    <edge id=":1126_7" function="internal">
        <lane id=":1126_7_0" index="0" disallow="pedestrian tram rail_urban rail rail_electric rail_fast ship" speed="13.89" length="34.72" width="3.50" shape="226.38,275.00,0.06 226.67,285.42,0.06 227.13,292.61,0.06 226.91,299.71,0.06 225.16,309.91,0.06">
            <param key="origId" value="1291_2"/>
            <param key="signalID" value="2393"/>
        </lane>
        <lane id=":1126_7_1" index="1" disallow="pedestrian tram rail_urban rail rail_electric rail_fast ship" speed="13.89" length="34.72" width="3.50" shape="222.88,274.98,0.06 223.17,285.19,0.06 223.62,292.22,0.06 223.42,299.18,0.06 221.74,309.18,0.06">
            <param key="origId" value="1291_1"/>
            <param key="signalID" value="2393"/>
        </lane>
    </edge>
    <edge id=":1126_9" function="internal">
        <lane id=":1126_9_0" index="0" disallow="pedestrian tram rail_urban rail rail_electric rail_fast ship" speed="11.08" length="27.95" width="3.50" shape="222.88,274.98,0.06 221.73,282.34,0.04 218.36,287.60,0.03 212.79,290.76,0.02 205.01,291.81">
            <param key="origId" value="1222_1"/>
            <param key="signalID" value="2396"/>
        </lane>
    </edge>
    <edge id=":1126_10" function="internal">
        <lane id=":1126_10_0" index="0" disallow="all" speed="1.39" length="30.17" width="0.50" shape="205.01,282.81 235.18,282.76">
            <param key="origId" value="1140_3"/>
        </lane>
    </edge>
    <edge id=":1126_11" function="internal">
        <lane id=":1126_11_0" index="0" disallow="pedestrian tram rail_urban rail rail_electric rail_fast ship" speed="8.68" length="16.71" width="3.50" shape="205.01,284.81 209.74,284.19,0.02 213.13,282.34,0.03 215.18,279.26,0.04 215.88,274.94,0.06">
            <param key="origId" value="1211_1"/>
            <param key="signalID" value="2395"/>
        </lane>
    </edge>
    <edge id=":1126_12" function="internal">
        <lane id=":1126_12_0" index="0" disallow="pedestrian tram rail_urban rail rail_electric rail_fast ship" speed="13.89" length="30.17" width="3.50" shape="205.01,284.81 235.18,284.76">
            <param key="origId" value="1140_2"/>
            <param key="signalID" value="2396"/>
        </lane>
        <lane id=":1126_12_1" index="1" disallow="pedestrian tram rail_urban rail rail_electric rail_fast ship" speed="13.89" length="30.17" width="3.50" shape="205.01,288.31 235.19,288.26">
            <param key="origId" value="1140_1"/>
            <param key="signalID" value="2396"/>
        </lane>
    </edge>
    <edge id=":1126_14" function="internal">
        <lane id=":1126_14_0" index="0" disallow="pedestrian tram rail_urban rail rail_electric rail_fast ship" speed="11.08" length="32.66" width="3.50" shape="205.01,288.31 214.33,289.53,0.02 220.12,293.30,0.03 222.54,299.79,0.04 221.74,309.18,0.06">
            <param key="origId" value="1236_1"/>
            <param key="signalID" value="2396"/>
        </lane>
    </edge>
    <edge id=":1126_15" function="internal">
        <lane id=":1126_15_0" index="0" disallow="all" speed="1.39" length="32.50" width="0.50" shape="212.94,307.29,0.06 214.41,297.81,0.06 214.56,291.23,0.06 214.14,284.58,0.06 213.88,274.93,0.06">
            <param key="origId" value="1290_-3"/>
        </lane>
    </edge>
    <edge id=":1126_16" function="internal">
        <lane id=":1126_16_0" index="0" disallow="pedestrian tram rail_urban rail rail_electric rail_fast ship" speed="8.61" length="19.06" width="3.50" shape="214.89,307.71,0.06 215.23,302.28,0.04 213.70,298.41,0.03 210.29,296.08,0.02 205.01,295.31">
            <param key="origId" value="1231_-1"/>
            <param key="signalID" value="2394"/>
        </lane>
    </edge>
    <edge id=":1126_17" function="internal">
        <lane id=":1126_17_0" index="0" disallow="pedestrian tram rail_urban rail rail_electric rail_fast ship" speed="13.89" length="33.27" width="3.50" shape="214.89,307.71,0.06 216.43,298.12,0.06 216.59,291.45,0.06 216.15,284.72,0.06 215.88,274.94,0.06">
            <param key="origId" value="1290_-2"/>
            <param key="signalID" value="2395"/>
        </lane>
        <lane id=":1126_17_1" index="1" disallow="pedestrian tram rail_urban rail rail_electric rail_fast ship" speed="13.89" length="33.27" width="3.50" shape="218.31,308.44,0.06 219.93,298.65,0.06 220.11,291.84,0.06 219.66,284.95,0.06 219.38,274.96,0.06">
            <param key="origId" value="1290_-1"/>
            <param key="signalID" value="2395"/>
        </lane>
    </edge>
    <edge id=":1126_19" function="internal">
        <lane id=":1126_19_0" index="0" disallow="pedestrian tram rail_urban rail rail_electric rail_fast ship" speed="12.15" length="28.50" width="3.50" shape="218.31,308.44,0.06 220.97,299.62,0.04 224.67,293.31,0.03 229.41,289.53,0.01 235.19,288.26">
            <param key="origId" value="1193_-1"/>
            <param key="signalID" value="2395"/>
        </lane>
    </edge>
    <edge id=":1292_0" function="internal">
        <lane id=":1292_0_0" index="0" disallow="pedestrian tram rail_urban rail rail_electric rail_fast ship" speed="8.11" length="14.22" width="3.50" shape="297.50,303.92 296.85,300.09 295.13,297.36 292.35,295.72 288.50,295.18">
            <param key="origId" value="1319_-1"/>
        </lane>
    </edge>
    <edge id=":1292_1" function="internal">
        <lane id=":1292_1_0" index="0" disallow="pedestrian tram rail_urban rail rail_electric rail_fast ship" speed="13.89" length="28.20" width="3.50" shape="297.50,303.92 296.74,275.74">
            <param key="origId" value="1420_-2"/>
            <param key="signalID" value="2400"/>
        </lane>
        <lane id=":1292_1_1" index="1" disallow="pedestrian tram rail_urban rail rail_electric rail_fast ship" speed="13.89" length="28.20" width="3.50" shape="300.99,303.83 300.24,275.64">
            <param key="origId" value="1420_-1"/>
            <param key="signalID" value="2400"/>
        </lane>
    </edge>
    <edge id=":1292_3" function="internal">
        <lane id=":1292_3_0" index="0" disallow="pedestrian tram rail_urban rail rail_electric rail_fast ship" speed="10.26" length="6.52" width="3.50" shape="300.99,303.83 301.68,297.34">
            <param key="origId" value="1360_-1"/>
            <param key="signalID" value="2400"/>
        </lane>
    </edge>
    <edge id=":1292_16" function="internal">
        <lane id=":1292_16_0" index="0" disallow="pedestrian tram rail_urban rail rail_electric rail_fast ship" speed="10.26" length="18.34" width="3.50" shape="301.68,297.34 301.74,296.74 304.42,291.72 309.03,288.79 315.56,287.94">
            <param key="origId" value="1360_-1"/>
            <param key="signalID" value="2400"/>
        </lane>
    </edge>
    <edge id=":1292_4" function="internal">
        <lane id=":1292_4_0" index="0" disallow="pedestrian tram rail_urban rail rail_electric rail_fast ship" speed="7.61" length="13.16" width="3.50" shape="315.39,294.94 312.06,295.41 309.72,297.02 308.36,299.76 307.99,303.64">
            <param key="origId" value="1356_-1"/>
            <param key="signalID" value="2398"/>
        </lane>
    </edge>
    <edge id=":1292_5" function="internal">
        <lane id=":1292_5_0" index="0" disallow="pedestrian tram rail_urban rail rail_electric rail_fast ship" speed="13.89" length="26.93" width="3.50" shape="315.39,294.94 288.50,295.18">
            <param key="origId" value="1299_-1"/>
        </lane>
        <lane id=":1292_5_1" index="1" disallow="pedestrian tram rail_urban rail rail_electric rail_fast ship" speed="13.89" length="26.93" width="3.50" shape="315.48,291.44 288.50,291.68">
            <param key="origId" value="1307_-1"/>
            <param key="signalID" value="2399 2399"/>
        </lane>
    </edge>
    <edge id=":1292_7" function="internal">
        <lane id=":1292_7_0" index="0" disallow="pedestrian tram rail_urban rail rail_electric rail_fast ship" speed="10.65" length="24.73" width="3.50" shape="315.48,291.44 308.98,290.31 304.28,287.30 301.36,282.41 300.24,275.64">
            <param key="origId" value="1376_-1"/>
            <param key="signalID" value="2399 2397"/>
        </lane>
    </edge>
    <edge id=":1292_8" function="internal">
        <lane id=":1292_8_0" index="0" disallow="pedestrian tram rail_urban rail rail_electric rail_fast ship" speed="8.11" length="13.89" width="3.50" shape="307.23,275.43 307.86,279.29 309.47,282.09 312.07,283.80 315.65,284.44"/>
    </edge>
    <edge id=":1292_9" function="internal">
        <lane id=":1292_9_0" index="0" disallow="pedestrian tram rail_urban rail rail_electric rail_fast ship" speed="13.89" length="28.22" width="3.50" shape="307.23,275.43 307.99,303.64"/>
        <lane id=":1292_9_1" index="1" disallow="pedestrian tram rail_urban rail rail_electric rail_fast ship" speed="13.89" length="28.22" width="3.50" shape="303.73,275.53 304.49,303.74"/>
    </edge>
    <edge id=":1292_11" function="internal">
        <lane id=":1292_11_0" index="0" disallow="pedestrian tram rail_urban rail rail_electric rail_fast ship" speed="10.47" length="25.48" width="3.50" shape="303.73,275.53 302.97,282.59 300.17,287.63 295.35,290.66 288.50,291.68"/>
    </edge>
    <edge id=":1292_12" function="internal">
        <lane id=":1292_12_0" index="0" disallow="pedestrian tram rail_urban rail rail_electric rail_fast ship" speed="7.89" length="13.96" width="3.50" shape="288.49,284.68 292.20,284.12 294.81,282.44 296.32,279.65 296.74,275.74">
            <param key="origId" value="1351_1"/>
            <param key="signalID" value="2400"/>
        </lane>
    </edge>
    <edge id=":1292_13" function="internal">
        <lane id=":1292_13_0" index="0" disallow="pedestrian tram rail_urban rail rail_electric rail_fast ship" speed="13.89" length="27.12" width="3.50" shape="288.49,284.68 315.65,284.44">
            <param key="origId" value="1293_1"/>
        </lane>
        <lane id=":1292_13_1" index="1" disallow="pedestrian tram rail_urban rail rail_electric rail_fast ship" speed="13.89" length="27.12" width="3.50" shape="288.49,288.18 315.56,287.94">
            <param key="origId" value="1313_1"/>
            <param key="signalID" value="2397 2397"/>
        </lane>
    </edge>
    <edge id=":1292_15" function="internal">
        <lane id=":1292_15_0" index="0" disallow="pedestrian tram rail_urban rail rail_electric rail_fast ship" speed="10.64" length="25.31" width="3.50" shape="288.49,288.18 295.34,289.15 300.28,292.06 303.34,296.92 304.49,303.74">
            <param key="origId" value="1339_1"/>
            <param key="signalID" value="2399 2397"/>
        </lane>
    </edge>
    <edge id=":1427_0" function="internal">
        <lane id=":1427_0_0" index="0" disallow="pedestrian tram rail_urban rail rail_electric rail_fast ship" speed="7.71" length="12.96" width="3.50" shape="234.40,204.68 231.07,205.20,0.02 228.69,206.78,0.03 227.25,209.41,0.04 226.75,213.11,0.06"/>
    </edge>
    <edge id=":1427_1" function="internal">
        <lane id=":1427_1_0" index="0" disallow="pedestrian tram rail_urban rail rail_electric rail_fast ship" speed="13.89" length="26.50" width="3.50" shape="234.40,204.68 207.90,204.62"/>
        <lane id=":1427_1_1" index="1" disallow="pedestrian tram rail_urban rail rail_electric rail_fast ship" speed="13.89" length="26.50" width="3.50" shape="234.41,201.18 207.91,201.12"/>
    </edge>
    <edge id=":1427_3" function="internal">
        <lane id=":1427_3_0" index="0" disallow="pedestrian tram rail_urban rail rail_electric rail_fast ship" speed="10.17" length="23.79" width="3.50" shape="234.41,201.18 228.08,200.22,0.02 223.60,197.37,0.03 220.98,192.63,0.04 220.20,186.01,0.06"/>
    </edge>
    <edge id=":1427_4" function="internal">
        <lane id=":1427_4_0" index="0" disallow="all" speed="1.39" length="26.93" width="0.50" shape="229.20,186.19,0.06 228.75,213.12,0.06">
            <param key="origId" value="1552_3"/>
        </lane>
    </edge>
    <edge id=":1427_5" function="internal">
        <lane id=":1427_5_0" index="0" disallow="pedestrian tram rail_urban rail rail_electric rail_fast ship" speed="7.49" length="12.36" width="3.50" shape="227.20,186.15,0.06 227.59,189.66,0.04 228.93,192.16,0.03 231.20,193.67,0.02 234.42,194.18">
            <param key="origId" value="1473_1"/>
            <param key="signalID" value="2404"/>
        </lane>
    </edge>
    <edge id=":1427_6" function="internal">
        <lane id=":1427_6_0" index="0" disallow="pedestrian tram rail_urban rail rail_electric rail_fast ship" speed="13.89" length="26.99" width="3.50" shape="227.20,186.15,0.06 226.75,213.11,0.06">
            <param key="origId" value="1552_2"/>
            <param key="signalID" value="2401"/>
        </lane>
        <lane id=":1427_6_1" index="1" disallow="pedestrian tram rail_urban rail rail_electric rail_fast ship" speed="13.89" length="26.99" width="3.50" shape="223.70,186.08,0.06 223.25,213.09,0.06">
            <param key="origId" value="1552_1"/>
            <param key="signalID" value="2401"/>
        </lane>
    </edge>
    <edge id=":1427_8" function="internal">
        <lane id=":1427_8_0" index="0" disallow="pedestrian tram rail_urban rail rail_electric rail_fast ship" speed="10.50" length="24.77" width="3.50" shape="223.70,186.08,0.06 222.60,192.67,0.04 219.60,197.38,0.03 214.71,200.19,0.02 207.91,201.12">
            <param key="origId" value="1512_1"/>
            <param key="signalID" value="2404"/>
        </lane>
    </edge>
    <edge id=":1427_9" function="internal">
        <lane id=":1427_9_0" index="0" disallow="all" speed="1.39" length="26.49" width="0.50" shape="207.93,192.12 234.43,192.18">
            <param key="origId" value="1438_3"/>
        </lane>
    </edge>
    <edge id=":1427_10" function="internal">
        <lane id=":1427_10_0" index="0" disallow="pedestrian tram rail_urban rail rail_electric rail_fast ship" speed="7.93" length="13.62" width="3.50" shape="207.93,194.12 211.71,193.61,0.02 214.43,192.08,0.03 216.10,189.53,0.04 216.71,185.94,0.06">
            <param key="origId" value="1504_1"/>
            <param key="signalID" value="2403"/>
        </lane>
    </edge>
    <edge id=":1427_11" function="internal">
        <lane id=":1427_11_0" index="0" disallow="pedestrian tram rail_urban rail rail_electric rail_fast ship" speed="13.89" length="26.49" width="3.50" shape="207.93,194.12 234.42,194.18">
            <param key="origId" value="1438_2"/>
            <param key="signalID" value="2404"/>
        </lane>
        <lane id=":1427_11_1" index="1" disallow="pedestrian tram rail_urban rail rail_electric rail_fast ship" speed="13.89" length="26.49" width="3.50" shape="207.92,197.62 234.41,197.68">
            <param key="origId" value="1438_1"/>
            <param key="signalID" value="2404"/>
        </lane>
    </edge>
    <edge id=":1427_13" function="internal">
        <lane id=":1427_13_0" index="0" disallow="pedestrian tram rail_urban rail rail_electric rail_fast ship" speed="10.44" length="24.86" width="3.50" shape="207.92,197.62 214.66,198.60,0.02 219.47,201.50,0.03 222.33,206.33,0.04 223.25,213.09,0.06">
            <param key="origId" value="1516_1"/>
            <param key="signalID" value="2404"/>
        </lane>
    </edge>
    <edge id=":1427_14" function="internal">
        <lane id=":1427_14_0" index="0" disallow="all" speed="1.39" length="27.13" width="0.50" shape="214.25,213.03,0.06 214.71,185.90,0.06">
            <param key="origId" value="1551_-3"/>
        </lane>
    </edge>
    <edge id=":1427_15" function="internal">
        <lane id=":1427_15_0" index="0" disallow="pedestrian tram rail_urban rail rail_electric rail_fast ship" speed="7.85" length="13.54" width="3.50" shape="216.25,213.04,0.06 215.75,209.37,0.04 214.19,206.73,0.03 211.57,205.15,0.02 207.90,204.62">
            <param key="origId" value="1522_-1"/>
            <param key="signalID" value="2402"/>
        </lane>
    </edge>
    <edge id=":1427_16" function="internal">
        <lane id=":1427_16_0" index="0" disallow="pedestrian tram rail_urban rail rail_electric rail_fast ship" speed="13.89" length="27.08" width="3.50" shape="216.25,213.04,0.06 216.71,185.94,0.06">
            <param key="origId" value="1551_-2"/>
            <param key="signalID" value="2403"/>
        </lane>
        <lane id=":1427_16_1" index="1" disallow="pedestrian tram rail_urban rail rail_electric rail_fast ship" speed="13.89" length="27.08" width="3.50" shape="219.75,213.07,0.06 220.20,186.01,0.06">
            <param key="origId" value="1551_-1"/>
            <param key="signalID" value="2403"/>
        </lane>
    </edge>
    <edge id=":1427_18" function="internal">
        <lane id=":1427_18_0" index="0" disallow="pedestrian tram rail_urban rail rail_electric rail_fast ship" speed="10.34" length="24.21" width="3.50" shape="219.75,213.07,0.06 220.71,206.32,0.04 223.47,201.51,0.03 228.04,198.63,0.02 234.41,197.68">
            <param key="origId" value="1489_-1"/>
            <param key="signalID" value="2403"/>
        </lane>
    </edge>
    <edge id=":1574_0" function="internal">
        <lane id=":1574_0_0" index="0" disallow="pedestrian tram rail_urban rail rail_electric rail_fast ship" speed="7.53" length="12.33" width="3.50" shape="295.19,212.87 294.74,209.35 293.38,206.83 291.12,205.32 287.96,204.81"/>
    </edge>
    <edge id=":1574_1" function="internal">
        <lane id=":1574_1_0" index="0" disallow="pedestrian tram rail_urban rail rail_electric rail_fast ship" speed="13.89" length="25.76" width="3.50" shape="295.19,212.87 295.38,187.10">
            <param key="origId" value="1675_-2"/>
            <param key="signalID" value="2408"/>
        </lane>
        <lane id=":1574_1_1" index="1" disallow="pedestrian tram rail_urban rail rail_electric rail_fast ship" speed="13.89" length="25.76" width="3.50" shape="298.69,212.87 298.88,187.13">
            <param key="origId" value="1675_-1"/>
            <param key="signalID" value="2408"/>
        </lane>
    </edge>
    <edge id=":1574_3" function="internal">
        <lane id=":1574_3_0" index="0" disallow="pedestrian tram rail_urban rail rail_electric rail_fast ship" speed="10.13" length="23.19" width="3.50" shape="298.69,212.87 299.59,206.64 302.31,202.18 306.84,199.49 313.17,198.57">
            <param key="origId" value="1697_-1"/>
            <param key="signalID" value="2406 2408"/>
        </lane>
    </edge>
    <edge id=":1574_4" function="internal">
        <lane id=":1574_4_0" index="0" disallow="pedestrian tram rail_urban rail rail_electric rail_fast ship" speed="7.43" length="11.94" width="3.50" shape="313.20,205.57 309.92,206.04 307.57,207.41 306.16,209.69 305.69,212.87"/>
    </edge>
    <edge id=":1574_5" function="internal">
        <lane id=":1574_5_0" index="0" disallow="pedestrian tram rail_urban rail rail_electric rail_fast ship" speed="13.89" length="25.25" width="3.50" shape="313.20,205.57 287.96,204.81"/>
        <lane id=":1574_5_1" index="1" disallow="pedestrian tram rail_urban rail rail_electric rail_fast ship" speed="13.89" length="25.25" width="3.50" shape="313.19,202.07 287.97,201.31"/>
    </edge>
    <edge id=":1574_7" function="internal">
        <lane id=":1574_7_0" index="0" disallow="pedestrian tram rail_urban rail rail_electric rail_fast ship" speed="10.16" length="23.66" width="3.50" shape="313.19,202.07 306.87,201.16 302.38,198.37 299.72,193.69 298.88,187.13">
            <param key="origId" value="1715_-1"/>
            <param key="signalID" value="2407"/>
        </lane>
    </edge>
    <edge id=":1574_8" function="internal">
        <lane id=":1574_8_0" index="0" disallow="pedestrian tram rail_urban rail rail_electric rail_fast ship" speed="7.47" length="12.25" width="3.50" shape="305.88,187.20 306.31,190.66 307.66,193.12 309.94,194.59 313.16,195.07">
            <param key="origId" value="1707_1"/>
            <param key="signalID" value="2405"/>
        </lane>
    </edge>
    <edge id=":1574_9" function="internal">
        <lane id=":1574_9_0" index="0" disallow="pedestrian tram rail_urban rail rail_electric rail_fast ship" speed="13.89" length="25.69" width="3.50" shape="305.88,187.20 305.69,212.87"/>
        <lane id=":1574_9_1" index="1" disallow="pedestrian tram rail_urban rail rail_electric rail_fast ship" speed="13.89" length="25.69" width="3.50" shape="302.38,187.17 302.19,212.87"/>
    </edge>
    <edge id=":1574_11" function="internal">
        <lane id=":1574_11_0" index="0" disallow="pedestrian tram rail_urban rail rail_electric rail_fast ship" speed="10.10" length="22.99" width="3.50" shape="302.38,187.17 301.43,193.37 298.71,197.79 294.22,200.44 287.97,201.31"/>
    </edge>
    <edge id=":1574_12" function="internal">
        <lane id=":1574_12_0" index="0" disallow="pedestrian tram rail_urban rail rail_electric rail_fast ship" speed="7.38" length="11.76" width="3.50" shape="287.98,194.31 291.19,193.87 293.49,192.52 294.89,190.26 295.38,187.10">
            <param key="origId" value="1605_1"/>
            <param key="signalID" value="2408"/>
        </lane>
    </edge>
    <edge id=":1574_13" function="internal">
        <lane id=":1574_13_0" index="0" disallow="pedestrian tram rail_urban rail rail_electric rail_fast ship" speed="13.89" length="25.20" width="3.50" shape="287.98,194.31 313.16,195.07">
            <param key="origId" value="1639_1"/>
        </lane>
        <lane id=":1574_13_1" index="1" disallow="pedestrian tram rail_urban rail rail_electric rail_fast ship" speed="13.89" length="25.20" width="3.50" shape="287.97,197.81 313.17,198.57">
            <param key="origId" value="1631_1"/>
            <param key="signalID" value="2405 2405"/>
        </lane>
    </edge>
    <edge id=":1574_15" function="internal">
        <lane id=":1574_15_0" index="0" disallow="pedestrian tram rail_urban rail rail_electric rail_fast ship" speed="10.21" length="6.29" width="3.50" shape="287.97,197.81 294.19,198.76"/>
    </edge>
    <edge id=":1574_16" function="internal">
        <lane id=":1574_16_0" index="0" disallow="pedestrian tram rail_urban rail rail_electric rail_fast ship" speed="10.21" length="17.31" width="3.50" shape="294.19,198.76 298.64,201.59 301.30,206.30 302.19,212.87"/>
    </edge>
    <edge id=":1722_0" function="internal">
        <lane id=":1722_0_0" index="0" disallow="all" speed="1.39" length="32.49" width="0.50" shape="161.36,117.87 128.87,117.91">
            <param key="origId" value="1862_-3"/>
        </lane>
    </edge>
    <edge id=":1722_1" function="internal">
        <lane id=":1722_1_0" index="0" disallow="pedestrian tram rail_urban rail rail_electric rail_fast ship" speed="8.50" length="15.92" width="3.50" shape="161.36,115.87 156.53,116.41 153.06,118.02 150.97,120.70 150.24,124.46">
            <param key="origId" value="1824_-1"/>
        </lane>
    </edge>
    <edge id=":1722_2" function="internal">
        <lane id=":1722_2_0" index="0" disallow="pedestrian tram rail_urban rail rail_electric rail_fast ship" speed="13.89" length="32.49" width="3.50" shape="161.36,115.87 128.87,115.91">
            <param key="origId" value="1862_-2"/>
            <param key="signalID" value="2412"/>
        </lane>
        <lane id=":1722_2_1" index="1" disallow="pedestrian tram rail_urban rail rail_electric rail_fast ship" speed="13.89" length="32.49" width="3.50" shape="161.36,112.37 128.86,112.41">
            <param key="origId" value="1862_-1"/>
            <param key="signalID" value="2412"/>
        </lane>
    </edge>
    <edge id=":1722_4" function="internal">
        <lane id=":1722_4_0" index="0" disallow="pedestrian tram rail_urban rail rail_electric rail_fast ship" speed="10.84" length="27.02" width="3.50" shape="161.36,112.37 153.48,111.40 147.88,108.48 144.55,103.62 143.49,96.82">
            <param key="origId" value="1784_-1"/>
            <param key="signalID" value="2412"/>
        </lane>
    </edge>
    <edge id=":1722_5" function="internal">
        <lane id=":1722_5_0" index="0" disallow="pedestrian tram rail_urban rail rail_electric rail_fast ship" speed="1.39" length="27.57" width="3.00" shape="153.74,96.93 153.49,124.50">
            <param key="origId" value="1757_-3"/>
        </lane>
    </edge>
    <edge id=":1722_6" function="internal">
        <lane id=":1722_6_0" index="0" disallow="pedestrian tram rail_urban rail rail_electric rail_fast ship" speed="8.38" length="15.67" width="3.50" shape="150.49,96.89 151.14,100.60 153.17,103.25 156.57,104.84 161.36,105.37">
            <param key="origId" value="1779_-1"/>
            <param key="signalID" value="2410"/>
        </lane>
    </edge>
    <edge id=":1722_7" function="internal">
        <lane id=":1722_7_0" index="0" disallow="pedestrian tram rail_urban rail rail_electric rail_fast ship" speed="13.89" length="27.57" width="3.50" shape="150.49,96.89 150.24,124.46">
            <param key="origId" value="1757_-2"/>
            <param key="signalID" value="2411"/>
        </lane>
        <lane id=":1722_7_1" index="1" disallow="pedestrian tram rail_urban rail rail_electric rail_fast ship" speed="13.89" length="27.57" width="3.50" shape="146.99,96.86 146.74,124.43">
            <param key="origId" value="1757_-1"/>
            <param key="signalID" value="2411"/>
        </lane>
    </edge>
    <edge id=":1722_9" function="internal">
        <lane id=":1722_9_0" index="0" disallow="pedestrian tram rail_urban rail rail_electric rail_fast ship" speed="10.95" length="27.13" width="3.50" shape="146.99,96.86 145.80,103.65 142.38,108.51 136.74,111.43 128.86,112.41">
            <param key="origId" value="1776_-1"/>
            <param key="signalID" value="2409 2411"/>
        </lane>
    </edge>
    <edge id=":1722_10" function="internal">
        <lane id=":1722_10_0" index="0" disallow="all" speed="1.39" length="32.51" width="0.50" shape="128.85,103.41 161.36,103.37">
            <param key="origId" value="1863_3"/>
        </lane>
    </edge>
    <edge id=":1722_11" function="internal">