<?xml version="1.0" encoding="UTF-8"?>

<!-- generated on 2024-06-06 16:48:05 by Eclipse SUMO netedit Version 1.20.0
<configuration xmlns:xsi="http://www.w3.org/2001/XMLSchema-instance" xsi:noNamespaceSchemaLocation="http://sumo.dlr.de/xsd/neteditConfiguration.xsd">

    <input>
        <sumo-net-file value="osm.net.xml.gz"/>
    </input>

    <output>
        <output-file value="osm.net.xml.gz"/>
        <output.street-names value="true"/>
    </output>

    <processing>
        <geometry.min-radius.fix.railways value="false"/>
        <geometry.max-grade.fix value="false"/>
        <offset.disable-normalization value="true"/>
        <lefthand value="1"/>
    </processing>

    <junctions>
        <no-turnarounds value="true"/>
        <junctions.corner-detail value="5"/>
        <junctions.limit-turn-speed value="5.50"/>
        <rectangular-lane-cut value="0"/>
    </junctions>

    <pedestrian>
        <walkingareas value="0"/>
    </pedestrian>

</configuration>
-->

<net version="1.20" junctionCornerDetail="5" lefthand="true" limitTurnSpeed="5.50" xmlns:xsi="http://www.w3.org/2001/XMLSchema-instance" xsi:noNamespaceSchemaLocation="http://sumo.dlr.de/xsd/net_file.xsd">

    <location netOffset="-364604.37,-142690.19" convBoundary="31.14,584.83,1234.83,1498.43" origBoundary="103.783019,1.290670,103.794519,1.304474" projParameter="+proj=utm +zone=48 +ellps=WGS84 +datum=WGS84 +units=m +no_defs"/>

    <type id="highway.primary" priority="12" numLanes="2" speed="27.78" disallow="tram rail_urban rail rail_electric rail_fast ship" oneway="0"/>
    <type id="highway.primary_link" priority="7" numLanes="1" speed="22.22" disallow="tram rail_urban rail rail_electric rail_fast ship" oneway="0"/>
    <type id="highway.residential" priority="3" numLanes="1" speed="13.89" disallow="tram rail_urban rail rail_electric rail_fast ship" oneway="0"/>
    <type id="highway.service" priority="1" numLanes="1" speed="5.56" allow="pedestrian delivery bicycle" oneway="0"/>
    <type id="highway.tertiary" priority="10" numLanes="1" speed="22.22" disallow="tram rail_urban rail rail_electric rail_fast ship" oneway="0"/>
    <type id="highway.tertiary_link" priority="5" numLanes="1" speed="22.22" disallow="tram rail_urban rail rail_electric rail_fast ship" oneway="0"/>

    <edge id=":10680100507_0" function="internal">
        <lane id=":10680100507_0_0" index="0" disallow="tram rail_urban rail rail_electric rail_fast ship" speed="11.11" length="0.30" shape="1185.90,701.95 1185.87,701.65"/>
    </edge>
    <edge id=":10680100507_1" function="internal">
        <lane id=":10680100507_1_0" index="0" disallow="tram rail_urban rail rail_electric rail_fast ship" speed="11.11" length="0.29" shape="1182.68,701.99 1182.71,702.28"/>
    </edge>
    <edge id=":10709412794_0" function="internal">
        <lane id=":10709412794_0_0" index="0" allow="pedestrian delivery bicycle" speed="5.56" length="0.10" shape="85.86,1249.50 85.86,1249.50"/>
    </edge>
    <edge id=":10709412794_1" function="internal">
        <lane id=":10709412794_1_0" index="0" allow="pedestrian delivery bicycle" speed="3.65" length="4.67" shape="85.86,1249.50 84.43,1249.32 83.61,1249.67 83.39,1250.54 83.78,1251.92"/>
    </edge>
    <edge id=":10709412794_2" function="internal">
        <lane id=":10709412794_2_0" index="0" allow="pedestrian delivery bicycle" speed="5.56" length="0.10" shape="83.78,1251.92 83.78,1251.92"/>
    </edge>
    <edge id=":10709412794_3" function="internal">
        <lane id=":10709412794_3_0" index="0" allow="pedestrian delivery bicycle" speed="3.65" length="4.67" shape="83.78,1251.92 85.21,1252.10 86.03,1251.75 86.25,1250.88 85.86,1249.50"/>
    </edge>
    <edge id=":10772249862_0" function="internal">
        <lane id=":10772249862_0_0" index="0" disallow="tram rail_urban rail rail_electric rail_fast ship" speed="11.11" length="0.31" shape="551.44,1142.38 551.41,1142.08"/>
    </edge>
    <edge id=":10772249862_1" function="internal">
        <lane id=":10772249862_1_0" index="0" disallow="tram rail_urban rail rail_electric rail_fast ship" speed="11.11" length="0.10" shape="548.24,1142.52 548.25,1142.62"/>
    </edge>
    <edge id=":1119594868_0" function="internal">
        <lane id=":1119594868_0_0" index="0" disallow="tram rail_urban rail rail_electric rail_fast ship" speed="13.89" length="19.71" shape="1165.75,830.20 1162.16,832.90 1157.83,836.08 1153.41,839.12 1149.55,841.40"/>
    </edge>
    <edge id=":1119594868_1" function="internal">
        <lane id=":1119594868_1_0" index="0" disallow="tram rail_urban rail rail_electric rail_fast ship" speed="6.39" length="2.43" shape="1165.75,830.20 1164.35,832.18"/>
    </edge>
    <edge id=":1119594868_6" function="internal">
        <lane id=":1119594868_6_0" index="0" disallow="tram rail_urban rail rail_electric rail_fast ship" speed="6.39" length="13.04" shape="1164.35,832.18 1163.38,833.55 1163.57,837.17 1165.88,839.96 1169.90,840.81"/>
    </edge>
    <edge id=":1119594868_2" function="internal">
        <lane id=":1119594868_2_0" index="0" disallow="tram rail_urban rail rail_electric rail_fast ship" speed="5.51" length="11.01" shape="1169.58,837.63 1165.83,837.69 1164.27,836.90 1164.88,835.25 1167.67,832.75"/>
    </edge>
    <edge id=":1119594868_3" function="internal">
        <lane id=":1119594868_3_0" index="0" disallow="tram rail_urban rail rail_electric rail_fast ship" speed="13.89" length="20.45" shape="1169.58,837.63 1164.98,838.11 1159.38,838.86 1153.87,839.93 1149.55,841.40"/>
    </edge>
    <edge id=":1119594868_4" function="internal">
        <lane id=":1119594868_4_0" index="0" disallow="tram rail_urban rail rail_electric rail_fast ship" speed="13.89" length="19.30" shape="1150.98,844.26 1155.13,842.84 1160.25,841.88 1165.48,841.25 1169.90,840.81"/>
    </edge>
    <edge id=":1119594868_5" function="internal">
        <lane id=":1119594868_5_0" index="0" disallow="tram rail_urban rail rail_electric rail_fast ship" speed="13.89" length="20.29" shape="1150.98,844.26 1154.92,841.94 1159.51,838.79 1164.01,835.51 1167.67,832.75"/>
    </edge>
    <edge id=":1119600880_0" function="internal">
        <lane id=":1119600880_0_0" index="0" disallow="tram rail_urban rail rail_electric rail_fast ship" speed="13.89" length="0.10" shape="691.86,1110.40 691.90,1110.48"/>
        <lane id=":1119600880_0_1" index="1" disallow="tram rail_urban rail rail_electric rail_fast ship" speed="13.89" length="0.10" shape="694.86,1109.26 694.82,1109.18"/>
    </edge>
    <edge id=":1119600882_0" function="internal">
        <lane id=":1119600882_0_0" index="0" disallow="tram rail_urban rail rail_electric rail_fast ship" speed="6.40" length="8.82" shape="856.33,840.40 858.44,838.99 860.43,838.55 862.29,839.09 864.04,840.60"/>
    </edge>
    <edge id=":1119600882_1" function="internal">
        <lane id=":1119600882_1_0" index="0" disallow="tram rail_urban rail rail_electric rail_fast ship" speed="7.23" length="10.16" shape="855.47,829.17 856.58,831.58 856.70,833.89 855.83,836.10 853.97,838.21"/>
    </edge>
    <edge id=":1119600882_2" function="internal">
        <lane id=":1119600882_2_0" index="0" disallow="tram rail_urban rail rail_electric rail_fast ship" speed="13.89" length="14.10" shape="855.47,829.17 857.80,832.71 859.49,835.08 861.30,837.35 864.04,840.60"/>
        <lane id=":1119600882_2_1" index="1" disallow="tram rail_urban rail rail_electric rail_fast ship" speed="13.89" length="14.10" shape="858.15,827.42 860.42,830.87 862.06,833.17 863.83,835.38 866.48,838.53"/>
    </edge>
    <edge id=":1119600883_0" function="internal">
        <lane id=":1119600883_0_0" index="0" disallow="tram rail_urban rail rail_electric rail_fast ship" speed="10.79" length="9.96" shape="1091.63,1080.73 1093.49,1082.84 1094.19,1084.71 1094.29,1086.87 1094.39,1089.85"/>
    </edge>
    <edge id=":1119600896_0" function="internal">
        <lane id=":1119600896_0_0" index="0" disallow="tram rail_urban rail rail_electric rail_fast ship" speed="13.89" length="0.26" shape="739.17,1404.85 739.02,1405.06"/>
    </edge>
    <edge id=":1119600896_1" function="internal">
        <lane id=":1119600896_1_0" index="0" disallow="tram rail_urban rail rail_electric rail_fast ship" speed="13.89" length="0.31" shape="741.61,1406.93 741.80,1406.68"/>
    </edge>
    <edge id=":1119600901_0" function="internal">
        <lane id=":1119600901_0_0" index="0" disallow="tram rail_urban rail rail_electric rail_fast ship" speed="13.89" length="0.49" shape="816.10,1274.79 816.07,1274.94 816.04,1275.03 816.00,1275.12 815.93,1275.25"/>
    </edge>
    <edge id=":1119600901_1" function="internal">
        <lane id=":1119600901_1_0" index="0" disallow="tram rail_urban rail rail_electric rail_fast ship" speed="13.46" length="1.48" shape="818.72,1276.81 818.94,1276.43 819.06,1276.15 819.15,1275.86 819.24,1275.43"/>
    </edge>
    <edge id=":1119600906_0" function="internal">
        <lane id=":1119600906_0_0" index="0" disallow="tram rail_urban rail rail_electric rail_fast ship" speed="13.89" length="8.46" shape="529.16,1402.21 526.85,1403.05 525.15,1403.25 523.39,1403.14 520.87,1403.07"/>
    </edge>
    <edge id=":1119600906_1" function="internal">
        <lane id=":1119600906_1_0" index="0" disallow="tram rail_urban rail rail_electric rail_fast ship" speed="13.89" length="9.16" shape="530.48,1405.12 527.94,1405.91 526.06,1405.97 524.17,1405.99 521.59,1406.68"/>
        <lane id=":1119600906_1_1" index="1" disallow="tram rail_urban rail rail_electric rail_fast ship" speed="13.89" length="9.16" shape="531.79,1408.04 529.22,1408.85 527.31,1408.92 525.39,1408.95 522.78,1409.65"/>
    </edge>
    <edge id=":1119642662_0" function="internal">
        <lane id=":1119642662_0_0" index="0" disallow="tram rail_urban rail rail_electric rail_fast ship" speed="13.89" length="7.47" shape="323.43,926.90 321.19,927.63 319.53,927.82 317.91,928.08 315.78,929.04"/>
        <lane id=":1119642662_0_1" index="1" disallow="tram rail_urban rail rail_electric rail_fast ship" speed="13.89" length="7.47" shape="324.73,929.82 322.59,930.51 321.00,930.66 319.44,930.89 317.41,931.80"/>
        <lane id=":1119642662_0_2" index="2" disallow="tram rail_urban rail rail_electric rail_fast ship" speed="13.89" length="7.47" shape="326.03,932.75 323.98,933.39 322.46,933.51 320.98,933.70 319.03,934.55"/>
        <lane id=":1119642662_0_3" index="3" disallow="tram rail_urban rail rail_electric rail_fast ship" speed="13.89" length="7.47" shape="327.33,935.67 325.38,936.27 323.93,936.36 322.51,936.51 320.66,937.31"/>
    </edge>
    <edge id=":1119642669_0" function="internal">
        <lane id=":1119642669_0_0" index="0" disallow="tram rail_urban rail rail_electric rail_fast ship" speed="6.08" length="9.27" shape="603.24,1387.20 601.74,1385.15 601.46,1383.22 602.40,1381.41 604.56,1379.73"/>
    </edge>
    <edge id=":1119642669_1" function="internal">
        <lane id=":1119642669_1_0" index="0" disallow="tram rail_urban rail rail_electric rail_fast ship" speed="7.68" length="9.82" shape="591.95,1386.65 594.04,1386.03 596.21,1386.25 598.44,1387.31 600.74,1389.22"/>
    </edge>
    <edge id=":1119642669_2" function="internal">
        <lane id=":1119642669_2_0" index="0" disallow="tram rail_urban rail rail_electric rail_fast ship" speed="13.89" length="14.29" shape="591.95,1386.65 604.56,1379.73"/>
        <lane id=":1119642669_2_1" index="1" disallow="tram rail_urban rail rail_electric rail_fast ship" speed="13.89" length="14.29" shape="590.51,1383.79 602.94,1376.97"/>
    </edge>
    <edge id=":1119645035_0" function="internal">
        <lane id=":1119645035_0_0" index="0" disallow="tram rail_urban rail rail_electric rail_fast ship" speed="7.03" length="7.59" shape="1039.46,1021.17 1038.27,1019.81 1037.63,1018.19 1037.54,1016.32 1038.00,1014.20"/>
    </edge>
    <edge id=":1119645035_1" function="internal">
        <lane id=":1119645035_1_0" index="0" disallow="tram rail_urban rail rail_electric rail_fast ship" speed="13.89" length="8.13" shape="1039.46,1021.17 1033.23,1015.94"/>
        <lane id=":1119645035_1_1" index="1" disallow="tram rail_urban rail rail_electric rail_fast ship" speed="13.89" length="8.13" shape="1037.40,1023.62 1031.18,1018.39"/>
    </edge>
    <edge id=":1119645052_0" function="internal">
        <lane id=":1119645052_0_0" index="0" disallow="tram rail_urban rail rail_electric rail_fast ship" speed="13.89" length="8.16" shape="857.25,801.07 856.30,798.90 856.01,797.25 855.73,795.60 854.83,793.39"/>
        <lane id=":1119645052_0_1" index="1" disallow="tram rail_urban rail rail_electric rail_fast ship" speed="13.89" length="8.16" shape="857.25,801.07 855.86,799.13 854.60,798.01 853.35,796.88 852.01,794.90"/>
        <lane id=":1119645052_0_2" index="2" disallow="tram rail_urban rail rail_electric rail_fast ship" speed="13.89" length="8.16" shape="854.48,802.66 853.06,800.69 851.80,799.56 850.55,798.41 849.19,796.41"/>
    </edge>
    <edge id=":1119649187_0" function="internal">
        <lane id=":1119649187_0_0" index="0" disallow="tram rail_urban rail rail_electric rail_fast ship" speed="13.89" length="11.36" shape="959.21,1428.53 958.68,1431.56 957.93,1433.79 957.18,1436.16 956.67,1439.56"/>
    </edge>
    <edge id=":1119649187_1" function="internal">
        <lane id=":1119649187_1_0" index="0" disallow="tram rail_urban rail rail_electric rail_fast ship" speed="12.72" length="10.54" shape="962.89,1430.22 960.38,1432.64 958.51,1434.34 957.28,1436.32 956.67,1439.56"/>
        <lane id=":1119649187_1_1" index="1" disallow="tram rail_urban rail rail_electric rail_fast ship" speed="11.49" length="10.54" shape="965.20,1432.44 963.12,1434.36 961.50,1435.67 960.40,1437.20 959.86,1439.80"/>
    </edge>
    <edge id=":1119649226_0" function="internal">
        <lane id=":1119649226_0_0" index="0" disallow="tram rail_urban rail rail_electric rail_fast ship" speed="13.89" length="14.71" shape="966.27,1298.60 965.59,1313.30"/>
    </edge>
    <edge id=":1119649226_1" function="internal">
        <lane id=":1119649226_1_0" index="0" disallow="tram rail_urban rail rail_electric rail_fast ship" speed="7.53" length="4.44" shape="966.27,1298.60 966.73,1303.02"/>
    </edge>
    <edge id=":1119649226_6" function="internal">
        <lane id=":1119649226_6_0" index="0" disallow="tram rail_urban rail rail_electric rail_fast ship" speed="7.53" length="11.26" shape="966.73,1303.02 966.74,1303.13 968.55,1305.89 971.69,1306.90 976.18,1306.16"/>
    </edge>
    <edge id=":1119649226_2" function="internal">
        <lane id=":1119649226_2_0" index="0" disallow="tram rail_urban rail rail_electric rail_fast ship" speed="5.89" length="9.11" shape="975.22,1303.11 972.61,1303.54 970.79,1302.95 969.74,1301.35 969.47,1298.73"/>
    </edge>
    <edge id=":1119649226_3" function="internal">
        <lane id=":1119649226_3_0" index="0" disallow="tram rail_urban rail rail_electric rail_fast ship" speed="9.56" length="14.97" shape="975.22,1303.11 971.16,1304.83 968.21,1307.10 966.35,1309.93 965.59,1313.30"/>
    </edge>
    <edge id=":1119649226_4" function="internal">
        <lane id=":1119649226_4_0" index="0" disallow="tram rail_urban rail rail_electric rail_fast ship" speed="8.30" length="11.09" shape="968.79,1313.49 969.36,1311.12 970.78,1309.11 973.06,1307.45 976.18,1306.16"/>
    </edge>
    <edge id=":1119649226_5" function="internal">
        <lane id=":1119649226_5_0" index="0" disallow="tram rail_urban rail rail_electric rail_fast ship" speed="13.89" length="14.78" shape="968.79,1313.49 969.47,1298.73"/>
    </edge>
    <edge id=":1712150229_0" function="internal">
        <lane id=":1712150229_0_0" index="0" disallow="tram rail_urban rail rail_electric rail_fast ship" speed="7.54" length="8.07" shape="640.76,983.77 640.18,982.12 640.20,980.30 640.81,978.34 642.02,976.22"/>
    </edge>
    <edge id=":1712150229_1" function="internal">
        <lane id=":1712150229_1_0" index="0" disallow="tram rail_urban rail rail_electric rail_fast ship" speed="13.89" length="8.77" shape="640.76,983.77 639.55,981.52 638.81,979.94 638.13,978.32 637.11,975.97"/>
        <lane id=":1712150229_1_1" index="1" disallow="tram rail_urban rail rail_electric rail_fast ship" speed="13.89" length="8.77" shape="637.97,985.33 636.72,983.00 635.94,981.37 635.23,979.70 634.19,977.27"/>
    </edge>
    <edge id=":1722525138_0" function="internal">
        <lane id=":1722525138_0_0" index="0" disallow="tram rail_urban rail rail_electric rail_fast ship" speed="13.89" length="0.28" shape="791.32,1321.71 791.18,1321.96"/>
    </edge>
    <edge id=":1722525138_1" function="internal">
        <lane id=":1722525138_1_0" index="0" disallow="tram rail_urban rail rail_electric rail_fast ship" speed="13.89" length="0.16" shape="794.00,1323.47 794.07,1323.34"/>
    </edge>
    <edge id=":1787007819_0" function="internal">
        <lane id=":1787007819_0_0" index="0" disallow="tram rail_urban rail rail_electric rail_fast ship" speed="13.89" length="0.30" shape="364.66,927.97 364.94,927.84"/>
        <lane id=":1787007819_0_1" index="1" disallow="tram rail_urban rail rail_electric rail_fast ship" speed="13.89" length="0.30" shape="363.37,925.04 363.64,924.92"/>
    </edge>
    <edge id=":1787007911_0" function="internal">
        <lane id=":1787007911_0_0" index="0" disallow="tram rail_urban rail rail_electric rail_fast ship" speed="13.89" length="8.82" shape="486.76,876.96 488.86,875.58 489.88,873.98 490.90,872.39 493.01,871.03"/>
        <lane id=":1787007911_0_1" index="1" disallow="tram rail_urban rail rail_electric rail_fast ship" speed="13.89" length="8.82" shape="485.56,873.99 487.67,872.60 488.70,871.01 489.72,869.42 491.84,868.05"/>
    </edge>
    <edge id=":1787007919_0" function="internal">
        <lane id=":1787007919_0_0" index="0" disallow="tram rail_urban rail rail_electric rail_fast ship" speed="13.89" length="0.30" shape="463.86,886.68 464.15,886.56"/>
        <lane id=":1787007919_0_1" index="1" disallow="tram rail_urban rail rail_electric rail_fast ship" speed="13.89" length="0.30" shape="462.62,883.73 462.88,883.62"/>
    </edge>
    <edge id=":1787007932_0" function="internal">
        <lane id=":1787007932_0_0" index="0" disallow="tram rail_urban rail rail_electric rail_fast ship" speed="13.89" length="0.24" shape="373.46,924.06 373.62,923.99"/>
        <lane id=":1787007932_0_1" index="1" disallow="tram rail_urban rail rail_electric rail_fast ship" speed="13.89" length="0.24" shape="372.16,921.14 372.44,921.02"/>
    </edge>
    <edge id=":1795305232_0" function="internal">
        <lane id=":1795305232_0_0" index="0" disallow="tram rail_urban rail rail_electric rail_fast ship" speed="19.44" length="7.88" shape="448.63,1352.52 448.93,1355.04 448.41,1356.88 447.96,1358.69 448.47,1361.13"/>
        <lane id=":1795305232_0_1" index="1" disallow="tram rail_urban rail rail_electric rail_fast ship" speed="19.44" length="7.88" shape="448.63,1352.52 449.36,1354.74 449.89,1356.24 450.49,1357.72 451.41,1359.85"/>
        <lane id=":1795305232_0_2" index="2" disallow="tram rail_urban rail rail_electric rail_fast ship" speed="19.44" length="7.88" shape="451.68,1351.53 452.37,1353.66 452.88,1355.10 453.46,1356.52 454.34,1358.58"/>
        <lane id=":1795305232_0_3" index="3" disallow="tram rail_urban rail rail_electric rail_fast ship" speed="19.44" length="7.88" shape="454.72,1350.55 455.39,1352.58 455.88,1353.97 456.43,1355.33 457.28,1357.30"/>
        <lane id=":1795305232_0_4" index="4" disallow="tram rail_urban rail rail_electric rail_fast ship" speed="19.44" length="7.88" shape="454.72,1350.55 455.87,1352.46 457.33,1353.34 458.87,1354.19 460.21,1356.02"/>
    </edge>
    <edge id=":1795305236_0" function="internal">
        <lane id=":1795305236_0_0" index="0" disallow="tram rail_urban rail rail_electric rail_fast ship" speed="13.89" length="17.29" shape="298.26,965.99 300.40,963.04 302.76,960.14 305.94,957.19 310.57,954.08"/>
    </edge>
    <edge id=":1795305236_1" function="internal">
        <lane id=":1795305236_1_0" index="0" disallow="tram rail_urban rail rail_electric rail_fast ship" speed="13.89" length="17.28" shape="295.35,962.35 310.57,954.08"/>
        <lane id=":1795305236_1_1" index="1" disallow="tram rail_urban rail rail_electric rail_fast ship" speed="13.89" length="17.28" shape="293.82,959.54 308.96,951.31"/>
    </edge>
    <edge id=":1795305247_0" function="internal">
        <lane id=":1795305247_0_0" index="0" disallow="tram rail_urban rail rail_electric rail_fast ship" speed="19.44" length="8.19" shape="346.77,1072.55 345.53,1070.43 345.00,1068.79 344.45,1067.16 343.16,1065.07"/>
        <lane id=":1795305247_0_1" index="1" disallow="tram rail_urban rail rail_electric rail_fast ship" speed="19.44" length="8.19" shape="346.77,1072.55 345.13,1070.74 343.73,1069.77 342.30,1068.80 340.62,1067.03"/>
        <lane id=":1795305247_0_2" index="2" disallow="tram rail_urban rail rail_electric rail_fast ship" speed="19.44" length="8.19" shape="344.18,1074.44 342.56,1072.65 341.17,1071.69 339.75,1070.73 338.09,1068.98"/>
        <lane id=":1795305247_0_3" index="3" disallow="tram rail_urban rail rail_electric rail_fast ship" speed="19.44" length="8.19" shape="341.60,1076.33 339.99,1074.55 338.61,1073.61 337.20,1072.67 335.55,1070.93"/>
        <lane id=":1795305247_0_4" index="4" disallow="tram rail_urban rail rail_electric rail_fast ship" speed="19.44" length="8.19" shape="339.01,1078.21 337.42,1076.46 336.05,1075.52 334.65,1074.60 333.02,1072.88"/>
        <lane id=":1795305247_0_5" index="5" disallow="tram rail_urban rail rail_electric rail_fast ship" speed="19.44" length="8.19" shape="336.43,1080.10 334.85,1078.37 333.49,1077.44 332.10,1076.53 330.48,1074.83"/>
    </edge>
    <edge id=":1795305248_0" function="internal">
        <lane id=":1795305248_0_0" index="0" disallow="tram rail_urban rail rail_electric rail_fast ship" speed="15.33" length="13.89" shape="272.46,1007.92 275.38,1009.60 277.78,1011.35 279.93,1013.78 282.12,1017.50"/>
    </edge>
    <edge id=":1795305248_1" function="internal">
        <lane id=":1795305248_1_0" index="0" disallow="tram rail_urban rail rail_electric rail_fast ship" speed="19.44" length="13.80" shape="277.08,1004.42 282.12,1017.50"/>
        <lane id=":1795305248_1_1" index="1" disallow="tram rail_urban rail rail_electric rail_fast ship" speed="19.44" length="13.80" shape="280.03,1003.18 284.97,1016.06"/>
        <lane id=":1795305248_1_2" index="2" disallow="tram rail_urban rail rail_electric rail_fast ship" speed="19.44" length="13.80" shape="282.98,1001.94 287.83,1014.62"/>
    </edge>
    <edge id=":1795305256_0" function="internal">
        <lane id=":1795305256_0_0" index="0" disallow="tram rail_urban rail rail_electric rail_fast ship" speed="9.42" length="6.07" shape="294.54,978.19 294.00,976.53 293.97,975.31 294.30,974.06 294.82,972.33"/>
    </edge>
    <edge id=":1795305256_1" function="internal">
        <lane id=":1795305256_1_0" index="0" disallow="tram rail_urban rail rail_electric rail_fast ship" speed="19.44" length="2.57" shape="291.59,979.43 292.37,977.11"/>
        <lane id=":1795305256_1_1" index="1" disallow="tram rail_urban rail rail_electric rail_fast ship" speed="19.44" length="2.57" shape="288.63,980.66 289.39,978.27"/>
        <lane id=":1795305256_1_2" index="2" disallow="tram rail_urban rail rail_electric rail_fast ship" speed="19.44" length="2.57" shape="285.68,981.89 286.40,979.43"/>
        <lane id=":1795305256_1_3" index="3" disallow="tram rail_urban rail rail_electric rail_fast ship" speed="19.44" length="2.57" shape="282.73,983.12 283.42,980.59"/>
        <lane id=":1795305256_1_4" index="4" disallow="tram rail_urban rail rail_electric rail_fast ship" speed="19.44" length="2.57" shape="279.77,984.35 280.43,981.74"/>
    </edge>
    <edge id=":1795305271_0" function="internal">
        <lane id=":1795305271_0_0" index="0" disallow="tram rail_urban rail rail_electric rail_fast ship" speed="19.44" length="3.29" shape="402.47,1202.43 402.88,1203.13 403.16,1203.61 403.40,1204.11 403.71,1204.85"/>
        <lane id=":1795305271_0_1" index="1" disallow="tram rail_urban rail rail_electric rail_fast ship" speed="19.44" length="3.29" shape="405.22,1200.81 405.72,1201.64 406.05,1202.23 406.33,1202.83 406.71,1203.73"/>
        <lane id=":1795305271_0_2" index="2" disallow="tram rail_urban rail rail_electric rail_fast ship" speed="19.44" length="3.29" shape="407.98,1199.18 408.56,1200.16 408.94,1200.84 409.27,1201.55 409.71,1202.61"/>
    </edge>
    <edge id=":1795305271_3" function="internal">
        <lane id=":1795305271_3_0" index="0" disallow="pedestrian tram rail_urban rail rail_electric rail_fast ship" speed="15.28" length="8.55" shape="410.73,1197.55 411.94,1199.78 412.74,1201.36 413.72,1202.78 415.47,1204.58"/>
    </edge>
    <edge id=":1795313884_0" function="internal">
        <lane id=":1795313884_0_0" index="0" disallow="tram rail_urban rail rail_electric rail_fast ship" speed="12.15" length="11.15" shape="429.90,1182.88 427.11,1181.83 425.43,1180.50 424.09,1178.66 422.31,1176.03"/>
        <lane id=":1795313884_0_1" index="1" disallow="tram rail_urban rail rail_electric rail_fast ship" speed="12.77" length="11.15" shape="429.90,1182.88 426.75,1182.18 424.26,1181.61 422.04,1180.44 419.72,1177.92"/>
    </edge>
    <edge id=":1795313884_2" function="internal">
        <lane id=":1795313884_2_0" index="0" disallow="tram rail_urban rail rail_electric rail_fast ship" speed="19.44" length="9.32" shape="421.76,1187.61 420.99,1184.76 421.06,1182.58 420.98,1180.49 419.72,1177.92"/>
        <lane id=":1795313884_2_1" index="1" disallow="tram rail_urban rail rail_electric rail_fast ship" speed="19.44" length="9.32" shape="418.94,1189.12 418.22,1186.39 418.35,1184.28 418.32,1182.27 417.14,1179.81"/>
        <lane id=":1795313884_2_2" index="2" disallow="tram rail_urban rail rail_electric rail_fast ship" speed="19.44" length="9.32" shape="416.11,1190.64 415.45,1188.01 415.63,1185.99 415.66,1184.06 414.55,1181.69"/>
        <lane id=":1795313884_2_3" index="3" disallow="tram rail_urban rail rail_electric rail_fast ship" speed="19.44" length="9.32" shape="416.11,1190.64 415.08,1188.43 414.30,1186.95 413.39,1185.55 411.97,1183.58"/>
    </edge>
    <edge id=":1795313895_0" function="internal">
        <lane id=":1795313895_0_0" index="0" disallow="tram rail_urban rail rail_electric rail_fast ship" speed="14.67" length="15.00" shape="505.04,1400.61 501.84,1399.21 499.00,1397.62 496.35,1395.20 493.76,1391.33"/>
    </edge>
    <edge id=":1795313895_1" function="internal">
        <lane id=":1795313895_1_0" index="0" disallow="tram rail_urban rail rail_electric rail_fast ship" speed="19.44" length="12.33" shape="499.61,1402.06 493.76,1391.33"/>
        <lane id=":1795313895_1_1" index="1" disallow="tram rail_urban rail rail_electric rail_fast ship" speed="19.44" length="12.33" shape="496.85,1403.69 490.95,1392.86"/>
        <lane id=":1795313895_1_2" index="2" disallow="tram rail_urban rail rail_electric rail_fast ship" speed="19.44" length="12.33" shape="494.10,1405.31 488.14,1394.39"/>
    </edge>
    <edge id=":1795313904_0" function="internal">
        <lane id=":1795313904_0_0" index="0" disallow="pedestrian tram rail_urban rail rail_electric rail_fast ship" speed="11.11" length="2.67" shape="435.75,1205.89 436.47,1204.47"/>
        <lane id=":1795313904_0_1" index="1" disallow="pedestrian tram rail_urban rail rail_electric rail_fast ship" speed="11.11" length="2.67" shape="438.51,1207.51 440.22,1204.16"/>
    </edge>
    <edge id=":1795313907_0" function="internal">
        <lane id=":1795313907_0_0" index="0" disallow="tram rail_urban rail rail_electric rail_fast ship" speed="9.71" length="8.94" shape="457.72,1421.56 455.91,1423.84 454.19,1425.53 452.55,1426.63 450.99,1427.14"/>
    </edge>
    <edge id=":1795313907_1" function="internal">
        <lane id=":1795313907_1_0" index="0" disallow="tram rail_urban rail rail_electric rail_fast ship" speed="13.89" length="9.51" shape="460.07,1425.02 457.40,1425.74 455.57,1426.26 453.72,1426.69 450.99,1427.14"/>
        <lane id=":1795313907_1_1" index="1" disallow="tram rail_urban rail rail_electric rail_fast ship" speed="13.89" length="9.51" shape="460.85,1428.12 458.08,1428.87 456.18,1429.41 454.27,1429.85 451.43,1430.31"/>
    </edge>
    <edge id=":1795313918_0" function="internal">
        <lane id=":1795313918_0_0" index="0" disallow="tram rail_urban rail rail_electric rail_fast ship" speed="19.44" length="8.04" shape="373.58,1153.76 374.78,1155.69 375.25,1157.22 375.69,1158.78 376.77,1160.79"/>
        <lane id=":1795313918_0_1" index="1" disallow="tram rail_urban rail rail_electric rail_fast ship" speed="19.44" length="8.04" shape="376.10,1151.78 377.33,1153.76 377.83,1155.32 378.29,1156.91 379.41,1158.97"/>
        <lane id=":1795313918_0_2" index="2" disallow="tram rail_urban rail rail_electric rail_fast ship" speed="19.44" length="8.04" shape="378.62,1149.80 379.88,1151.83 380.41,1153.42 380.89,1155.05 382.04,1157.15"/>
        <lane id=":1795313918_0_3" index="3" disallow="tram rail_urban rail rail_electric rail_fast ship" speed="19.44" length="8.04" shape="378.62,1149.80 380.30,1151.56 381.72,1152.51 383.10,1153.50 384.68,1155.34"/>
    </edge>
    <edge id=":1795313947_0" function="internal">
        <lane id=":1795313947_0_0" index="0" disallow="pedestrian tram rail_urban rail rail_electric rail_fast ship" speed="11.11" length="6.29" shape="458.93,1167.46 455.91,1172.97"/>
    </edge>
    <edge id=":1795313947_1" function="internal">
        <lane id=":1795313947_1_0" index="0" allow="delivery bicycle" speed="6.82" length="5.81" shape="454.67,1167.50 455.56,1169.25 456.06,1170.74 456.18,1171.98 455.91,1172.97"/>
    </edge>
    <edge id=":1795313949_0" function="internal">