<?xml version="1.0" encoding="UTF-8"?>

<!-- generated on 2024-06-19 14:53:38.865555 by randomTrips.py UNKNOWN
<configuration>
    <end value="300"/>
    <net-file value="osm.net.xml"/>
    <period value="0.5"/>
    <route-file value="osm.rou.xml"/>
</configuration>
-->

<routes xmlns:xsi="http://www.w3.org/2001/XMLSchema-instance" xsi:noNamespaceSchemaLocation="http://sumo.dlr.de/xsd/routes_file.xsd">
    <trip id="0" depart="0.00" from="635470894" to="-479552718"/>
    <trip id="1" depart="0.50" from="168242590" to="120719659#0"/>
    <trip id="2" depart="1.00" from="644922572" to="639874638"/>
    <trip id="3" depart="1.50" from="746655212" to="-646647827"/>
    <trip id="4" depart="2.00" from="479568120" to="-538766109"/>
    <trip id="5" depart="2.50" from="120719658#1" to="538766118#1"/>
    <trip id="6" depart="3.00" from="-479753340" to="1038616655"/>
    <trip id="7" depart="3.50" from="635689731" to="538769210"/>
    <trip id="8" depart="4.00" from="120719658#1" to="573713869"/>
    <trip id="9" depart="4.50" from="655644175" to="-169421671"/>
    <trip id="10" depart="5.00" from="655641116" to="639999881"/>
    <trip id="11" depart="5.50" from="314385981" to="-743281343"/>
    <trip id="12" depart="6.00" from="747368578" to="314385981"/>
    <trip id="13" depart="6.50" from="-647111334" to="-668798705"/>
    <trip id="14" depart="7.00" from="741980093" to="634223813"/>
    <trip id="15" depart="7.50" from="655641116" to="644466857"/>
    <trip id="16" depart="8.00" from="538767561#1" to="96668755"/>
    <trip id="17" depart="8.50" from="449399358" to="538769212#1"/>
    <trip id="18" depart="9.00" from="675079026" to="634257156"/>
    <trip id="19" depart="9.50" from="742170149" to="573704873#0"/>
    <trip id="20" depart="10.00" from="640196567#0" to="-538769210"/>
    <trip id="21" depart="10.50" from="120719659#0" to="173896145#1"/>
    <trip id="22" depart="11.00" from="-644922572" to="141428143#0"/>
    <trip id="23" depart="11.50" from="-669036662" to="173166882#0"/>
    <trip id="24" depart="12.00" from="634722287" to="403795728"/>
    <trip id="25" depart="12.50" from="448937538" to="1156275592"/>
    <trip id="26" depart="13.00" from="168242587" to="746976889#1"/>
    <trip id="27" depart="13.50" from="635689173" to="634255233"/>
    <trip id="28" depart="14.00" from="-747034361" to="644466857"/>
    <trip id="29" depart="14.50" from="-745349346" to="464985740"/>
    <trip id="30" depart="15.00" from="96677745" to="635689172"/>
    <trip id="31" depart="15.50" from="538769212#1" to="639934621"/>
    <trip id="32" depart="16.00" from="741979001" to="652549727"/>
    <trip id="33" depart="16.50" from="120719659#1" to="-538766109"/>
    <trip id="34" depart="17.00" from="22278331#1" to="168242589"/>
    <trip id="35" depart="17.50" from="1156275592" to="747037550"/>
    <trip id="36" depart="18.00" from="743294539" to="22278331#1"/>
    <trip id="37" depart="18.50" from="635689735" to="479390106"/>
    <trip id="38" depart="19.00" from="746960991" to="479770579"/>
    <trip id="39" depart="19.50" from="168242587" to="159115037"/>
    <trip id="40" depart="20.00" from="538769214" to="168242583"/>
    <trip id="41" depart="20.50" from="573704883" to="746688152"/>
    <trip id="42" depart="21.00" from="479390106" to="120719658#2"/>
    <trip id="43" depart="21.50" from="96678446" to="538766122"/>
    <trip id="44" depart="22.00" from="-647111334" to="-538769210"/>
    <trip id="45" depart="22.50" from="-675335532" to="634702969"/>
    <trip id="46" depart="23.00" from="655492366#0" to="479608893"/>
    <trip id="47" depart="23.50" from="-639568319" to="464985775"/>
    <trip id="48" depart="24.00" from="96678021" to="538767561#0"/>
    <trip id="49" depart="24.50" from="96668755" to="742170149"/>
    <trip id="50" depart="25.00" from="-333374586" to="641121025"/>
    <trip id="51" depart="25.50" from="639934188" to="538767575"/>
    <trip id="52" depart="26.00" from="168242587" to="635689172"/>
    <trip id="53" depart="26.50" from="-675335532" to="479619179"/>
    <trip id="54" depart="27.00" from="479770577" to="747058652"/>
    <trip id="55" depart="27.50" from="743294539" to="168242587"/>
    <trip id="56" depart="28.00" from="538766115" to="-747037548"/>
    <trip id="57" depart="28.50" from="746714120" to="743294536"/>
    <trip id="58" depart="29.00" from="175840209#0" to="635689172"/>
    <trip id="59" depart="29.50" from="634255233" to="-743279978"/>
    <trip id="60" depart="30.00" from="652027920" to="538767575"/>
    <trip id="61" depart="30.50" from="652549727" to="538767561#1"/>
    <trip id="62" depart="31.00" from="-1038616655" to="22278666"/>
    <trip id="63" depart="31.50" from="-464985741" to="746967062"/>
    <trip id="64" depart="32.00" from="743297323" to="728236606"/>
    <trip id="65" depart="32.50" from="175840210" to="-538769218"/>
    <trip id="66" depart="33.00" from="743297323" to="747039014"/>
    <trip id="67" depart="33.50" from="-646647827" to="538766103"/>
    <trip id="68" depart="34.00" from="-639999881" to="652027920"/>
    <trip id="69" depart="34.50" from="652027921#0" to="-741980771#0"/>
    <trip id="70" depart="35.00" from="526887917" to="538769212#0"/>
    <trip id="71" depart="35.50" from="168242587" to="743294539"/>
    <trip id="72" depart="36.00" from="479568120" to="120719658#0"/>
    <trip id="73" depart="36.50" from="538767564" to="644626278#0"/>
    <trip id="74" depart="37.00" from="1051771499" to="22278331#0"/>
    <trip id="75" depart="37.50" from="96678021" to="635689735"/>
    <trip id="76" depart="38.00" from="479612876" to="538767552"/>
    <trip id="77" depart="38.50" from="-741979379" to="120719659#0"/>
    <trip id="78" depart="39.00" from="314385981" to="573713869"/>
    <trip id="79" depart="39.50" from="120719659#1" to="120719658#2"/>
    <trip id="80" depart="40.00" from="-639999881" to="634722286"/>
    <trip id="81" depart="40.50" from="120719659#1" to="746702000"/>
    <trip id="82" depart="41.00" from="742170149" to="-639999881"/>
    <trip id="83" depart="41.50" from="141428143#1" to="639568595"/>
    <trip id="84" depart="42.00" from="120719658#0" to="-741980772#0"/>
    <trip id="85" depart="42.50" from="746976889#1" to="573704870#0"/>
    <trip id="86" depart="43.00" from="512870222#0" to="655149206"/>
    <trip id="87" depart="43.50" from="655641116" to="-96670625#1"/>
    <trip id="88" depart="44.00" from="-668798705" to="479612876"/>
    <trip id="89" depart="44.50" from="479568120" to="480227677"/>
    <trip id="90" depart="45.00" from="644466857" to="639874635"/>
    <trip id="91" depart="45.50" from="96670625#2" to="-668798705"/>
    <trip id="92" depart="46.00" from="479390110" to="314385981"/>
    <trip id="93" depart="46.50" from="742170149" to="168241645"/>
    <trip id="94" depart="47.00" from="-96670625#1" to="479766701"/>
    <trip id="95" depart="47.50" from="479568120" to="173166882#0"/>
    <trip id="96" depart="48.00" from="159115037" to="746963951"/>
    <trip id="97" depart="48.50" from="479619180" to="743255421"/>
    <trip id="98" depart="49.00" from="538769210" to="-538769212#0"/>
    <trip id="99" depart="49.50" from="96678446" to="741976425"/>
    <trip id="100" depart="50.00" from="747369738" to="746966173"/>
    <trip id="101" depart="50.50" from="741980771#1" to="-745349346"/>
    <trip id="102" depart="51.00" from="538766099" to="120719658#0"/>
    <trip id="103" depart="51.50" from="479390106" to="-634722287"/>
    <trip id="104" depart="52.00" from="449399358" to="96670625#2"/>
    <trip id="105" depart="52.50" from="168242587" to="655149206"/>
    <trip id="106" depart="53.00" from="479770577" to="479608893"/>
    <trip id="107" depart="53.50" from="747368578" to="96678021"/>
    <trip id="108" depart="54.00" from="538769212#1" to="641071178"/>
    <trip id="109" depart="54.50" from="-743281343" to="175840209#0"/>
    <trip id="110" depart="55.00" from="747369738" to="573704873#0"/>
    <trip id="111" depart="55.50" from="538767575" to="647111334"/>
    <trip id="112" depart="56.00" from="-538769218" to="573713867"/>
    <trip id="113" depart="56.50" from="538766115" to="741980772#1"/>
    <trip id="114" depart="57.00" from="-743297325" to="747369067"/>
    <trip id="115" depart="57.50" from="-644922572" to="-747367551"/>
    <trip id="116" depart="58.00" from="633617699" to="639874638"/>
    <trip id="117" depart="58.50" from="141428143#0" to="-740962221"/>
    <trip id="118" depart="59.00" from="746653374" to="159115037"/>
    <trip id="119" depart="59.50" from="633617699" to="634257156"/>
    <trip id="120" depart="60.00" from="479552719" to="573704883"/>
    <trip id="121" depart="60.50" from="538767555" to="746976889#1"/>
    <trip id="122" depart="61.00" from="1122255696" to="641071178"/>
    <trip id="123" depart="61.50" from="141428143#1" to="479390106"/>
    <trip id="124" depart="62.00" from="639568595" to="175840209#1"/>
    <trip id="125" depart="62.50" from="22278331#1" to="649392322"/>
    <trip id="126" depart="63.00" from="-640196567#0" to="479770579"/>
    <trip id="127" depart="63.50" from="96678446" to="96678021"/>
    <trip id="128" depart="64.00" from="-640196567#0" to="120719658#0"/>
    <trip id="129" depart="64.50" from="168242587" to="746976887"/>
    <trip id="130" depart="65.00" from="743297324" to="743297323"/>
    <trip id="131" depart="65.50" from="448937433" to="-743297325"/>
    <trip id="132" depart="66.00" from="737200024" to="640196567#0"/>
    <trip id="133" depart="66.50" from="634255233" to="96670628"/>
    <trip id="134" depart="67.00" from="635689735" to="-22278659"/>
    <trip id="135" depart="67.50" from="655696049" to="175840209#1"/>
    <trip id="136" depart="68.00" from="639568318" to="747037547"/>
    <trip id="137" depart="68.50" from="-741980772#1" to="-684368039"/>
    <trip id="138" depart="69.00" from="-675079025" to="538769212#1"/>
    <trip id="139" depart="69.50" from="168242590" to="634223813"/>
    <trip id="140" depart="70.00" from="641071178" to="1122255696"/>
    <trip id="141" depart="70.50" from="634722287" to="168242587"/>
    <trip id="142" depart="71.00" from="538766099" to="746702000"/>
    <trip id="143" depart="71.50" from="741980093" to="-647111334"/>
    <trip id="144" depart="72.00" from="479568120" to="169421671"/>
    <trip id="145" depart="72.50" from="-1038616655" to="652296707"/>
    <trip id="146" depart="73.00" from="634722287" to="168242583"/>
    <trip id="147" depart="73.50" from="646400892" to="538769212#1"/>
    <trip id="148" depart="74.00" from="479608894" to="-22278659"/>
    <trip id="149" depart="74.50" from="-640196567#0" to="743297324"/>
    <trip id="150" depart="75.00" from="746690575" to="538769210"/>
    <trip id="151" depart="75.50" from="737200024" to="573704883"/>
    <trip id="152" depart="76.00" from="-743255421" to="-741980092"/>
    <trip id="153" depart="76.50" from="175878990#0" to="746688152"/>
    <trip id="154" depart="77.00" from="655492366#1" to="742170149"/>
    <trip id="155" depart="77.50" from="746688152" to="1156275592"/>
    <trip id="156" depart="78.00" from="159115037" to="-670463578"/>
    <trip id="157" depart="78.50" from="655148853" to="745327738"/>
    <trip id="158" depart="79.00" from="479390113" to="634275860"/>
    <trip id="159" depart="79.50" from="-743281343" to="746967062"/>
    <trip id="160" depart="80.00" from="743255421" to="96670625#0"/>
    <trip id="161" depart="80.50" from="655644175" to="743297324"/>
    <trip id="162" depart="81.00" from="-479552718" to="644922572"/>
    <trip id="163" depart="81.50" from="262819992" to="746976887"/>
    <trip id="164" depart="82.00" from="655571315" to="743255421"/>
    <trip id="165" depart="82.50" from="655644175" to="168242589"/>
    <trip id="166" depart="83.00" from="655492363" to="-675079025"/>
    <trip id="167" depart="83.50" from="743294536" to="742170149"/>
    <trip id="168" depart="84.00" from="120719658#2" to="655696049"/>
    <trip id="169" depart="84.50" from="479770579" to="175840210"/>
    <trip id="170" depart="85.00" from="655492366#1" to="120719659#1"/>
    <trip id="171" depart="85.50" from="-479552718" to="-96670625#1"/>
    <trip id="172" depart="86.00" from="262819990" to="743255421"/>
    <trip id="173" depart="86.50" from="747369068" to="173166882#0"/>
    <trip id="174" depart="87.00" from="635689172" to="479390110"/>
    <trip id="175" depart="87.50" from="96670625#1" to="538767564"/>
    <trip id="176" depart="88.00" from="747037547" to="-684368039"/>
    <trip id="177" depart="88.50" from="747369738" to="-747037548"/>
    <trip id="178" depart="89.00" from="747369067" to="168242587"/>
    <trip id="179" depart="89.50" from="-675079025" to="479619179"/>
    <trip id="180" depart="90.00" from="644466857" to="22278331#0"/>
    <trip id="181" depart="90.50" from="634223813" to="538767549"/>
    <trip id="182" depart="91.00" from="464985775" to="573704871"/>
    <trip id="183" depart="91.50" from="168241646" to="641071177#0"/>
    <trip id="184" depart="92.00" from="-1038616655" to="746966173"/>
    <trip id="185" depart="92.50" from="538767564" to="641121025"/>
    <trip id="186" depart="93.00" from="646400892" to="639568595"/>
    <trip id="187" depart="93.50" from="403795728" to="-639999881"/>
    <trip id="188" depart="94.00" from="639568318" to="262819992"/>
    <trip id="189" depart="94.50" from="22278331#0" to="741980771#1"/>
    <trip id="190" depart="95.00" from="641071178" to="175840209#1"/>
    <trip id="191" depart="95.50" from="175878990#0" to="479537328"/>
    <trip id="192" depart="96.00" from="479390110" to="175840209#0"/>
    <trip id="193" depart="96.50" from="-741980771#0" to="479608893"/>
    <trip id="194" depart="97.00" from="747037547" to="639874638"/>
    <trip id="195" depart="97.50" from="746690575" to="634257155"/>
    <trip id="196" depart="98.00" from="175840209#1" to="538769212#0"/>
    <trip id="197" depart="98.50" from="-1038616655" to="173896145#0"/>
    <trip id="198" depart="99.00" from="479608894" to="573704873#0"/>
    <trip id="199" depart="99.50" from="635689735" to="480227677"/>
    <trip id="200" depart="100.00" from="479619180" to="120719658#0"/>
    <trip id="201" depart="100.50" from="512870222#0" to="746688152"/>
    <trip id="202" depart="101.00" from="655492366#1" to="-745356719"/>
    <trip id="203" depart="101.50" from="-646647827" to="538767552"/>
    <trip id="204" depart="102.00" from="634722286" to="262819996"/>
    <trip id="205" depart="102.50" from="655696049" to="647562104"/>
    <trip id="206" depart="103.00" from="639568595" to="120719659#0"/>
    <trip id="207" depart="103.50" from="1038616655" to="-479552718"/>
    <trip id="208" depart="104.00" from="159115036#1" to="533283452"/>
    <trip id="209" depart="104.50" from="741980771#1" to="-639999881"/>
    <trip id="210" depart="105.00" from="479552717" to="634722286"/>
    <trip id="211" depart="105.50" from="-96670626" to="639936523"/>
    <trip id="212" depart="106.00" from="538766109" to="159115036#1"/>
    <trip id="213" depart="106.50" from="638912257" to="-169421671"/>
    <trip id="214" depart="107.00" from="647562104" to="652296706"/>
    <trip id="215" depart="107.50" from="-675079025" to="479608894"/>
    <trip id="216" depart="108.00" from="-747037548" to="747368578"/>
    <trip id="217" depart="108.50" from="538767549" to="-538769212#0"/>
    <trip id="218" depart="109.00" from="159115037" to="741980771#1"/>
    <trip id="219" depart="109.50" from="479770577" to="655571315"/>
    <trip id="220" depart="110.00" from="639568320" to="96670628"/>
    <trip id="221" depart="110.50" from="633617699" to="747039987#1"/>
    <trip id="222" depart="111.00" from="746655212" to="634255234"/>
    <trip id="223" depart="111.50" from="641071178" to="538766118#1"/>
    <trip id="224" depart="112.00" from="728236606" to="538769212#0"/>
    <trip id="225" depart="112.50" from="746656963" to="646647827"/>
    <trip id="226" depart="113.00" from="526887917" to="168242583"/>
    <trip id="227" depart="113.50" from="159115037" to="635470894"/>
    <trip id="228" depart="114.00" from="652027921#0" to="538767555"/>
    <trip id="229" depart="114.50" from="634275860" to="169421671"/>
    <trip id="230" depart="115.00" from="-644696196" to="173896145#0"/>
    <trip id="231" depart="115.50" from="168242589" to="22278331#2"/>
    <trip id="232" depart="116.00" from="538767575" to="-741980772#1"/>
    <trip id="233" depart="116.50" from="120719659#1" to="639936523"/>
    <trip id="234" depart="117.00" from="640196567#0" to="-639568319"/>
    <trip id="235" depart="117.50" from="479390113" to="538769201"/>
    <trip id="236" depart="118.00" from="479552717" to="1156268462"/>
    <trip id="237" depart="118.50" from="479552719" to="746690575"/>
    <trip id="238" depart="119.00" from="573704883" to="639936523"/>
    <trip id="239" depart="119.50" from="742167351" to="652027921#0"/>
    <trip id="240" depart="120.00" from="449399358" to="-169421671"/>
    <trip id="241" depart="120.50" from="333374586" to="649392322"/>
    <trip id="242" depart="121.00" from="741980772#1" to="747058652"/>
    <trip id="243" depart="121.50" from="479552719" to="647111334"/>
    <trip id="244" depart="122.00" from="538769201" to="634223813"/>
    <trip id="245" depart="122.50" from="120719658#1" to="120719658#2"/>
    <trip id="246" depart="123.00" from="479612876" to="-479753340"/>
    <trip id="247" depart="123.50" from="262819996" to="639934188"/>
    <trip id="248" depart="124.00" from="479390110" to="-745349346"/>
    <trip id="249" depart="124.50" from="480227676#0" to="-741980092"/>
    <trip id="250" depart="125.00" from="634257156" to="-479753340"/>
    <trip id="251" depart="125.50" from="479388625" to="541928632"/>
    <trip id="252" depart="126.00" from="-479753340" to="635689173"/>
    <trip id="253" depart="126.50" from="-741980772#1" to="480227676#0"/>
    <trip id="254" depart="127.00" from="-538769212#0" to="464985740"/>
    <trip id="255" depart="127.50" from="1156275592" to="262819990"/>
    <trip id="256" depart="128.00" from="652027920" to="464985740"/>
    <trip id="257" depart="128.50" from="647562104" to="728236606"/>
    <trip id="258" depart="129.00" from="168241645" to="-644922572"/>
    <trip id="259" depart="129.50" from="-464985741" to="538767575"/>
    <trip id="260" depart="130.00" from="96678446" to="333374585"/>
    <trip id="261" depart="130.50" from="635689731" to="655149206"/>
    <trip id="262" depart="131.00" from="635689731" to="649392322"/>
    <trip id="263" depart="131.50" from="747039987#1" to="1038616655"/>
    <trip id="264" depart="132.00" from="-464985741" to="-743279978"/>
    <trip id="265" depart="132.50" from="-741980092" to="639568595"/>
    <trip id="266" depart="133.00" from="538770176" to="120719658#1"/>
    <trip id="267" depart="133.50" from="639999881" to="652296706"/>
    <trip id="268" depart="134.00" from="-745356719" to="634255233"/>
    <trip id="269" depart="134.50" from="647111334" to="-684368039"/>
    <trip id="270" depart="135.00" from="668585464" to="747369068"/>
    <trip id="271" depart="135.50" from="-675079025" to="-479753340"/>
    <trip id="272" depart="136.00" from="22278331#0" to="639874638"/>
    <trip id="273" depart="136.50" from="747368578" to="479390106"/>
    <trip id="274" depart="137.00" from="641071177#1" to="-640196567#0"/>
    <trip id="275" depart="137.50" from="639936516" to="634702969"/>
    <trip id="276" depart="138.00" from="-670463578" to="652296707"/>
    <trip id="277" depart="138.50" from="741980771#1" to="633796584#0"/>
    <trip id="278" depart="139.00" from="-741979379" to="96670625#2"/>
    <trip id="279" depart="139.50" from="655149206" to="333374585"/>
    <trip id="280" depart="140.00" from="479608894" to="448937539"/>
    <trip id="281" depart="140.50" from="538766118#0" to="314385986"/>
    <trip id="282" depart="141.00" from="741980771#1" to="668585466"/>
    <trip id="283" depart="141.50" from="-675079025" to="747369067"/>
    <trip id="284" depart="142.00" from="634722287" to="728236606"/>
    <trip id="285" depart="142.50" from="640196567#1" to="479619179"/>
    <trip id="286" depart="143.00" from="644626278#0" to="747369068"/>
    <trip id="287" depart="143.50" from="168242589" to="655644175"/>
    <trip id="288" depart="144.00" from="538767564" to="538766099"/>
    <trip id="289" depart="144.50" from="479612876" to="644626278#0"/>
    <trip id="290" depart="145.00" from="168242589" to="741980772#1"/>
    <trip id="291" depart="145.50" from="728236606" to="-646647827"/>
    <trip id="292" depart="146.00" from="743297324" to="159115036#1"/>
    <trip id="293" depart="146.50" from="480227676#0" to="634255234"/>
    <trip id="294" depart="147.00" from="449399358" to="-479753340"/>
    <trip id="295" depart="147.50" from="741980771#1" to="-747038554"/>
    <trip id="296" depart="148.00" from="1156275592" to="655492366#2"/>
    <trip id="297" depart="148.50" from="314385981" to="743297324"/>
    <trip id="298" depart="149.00" from="639999881" to="169421671"/>
    <trip id="299" depart="149.50" from="-22278659" to="747039014"/>
    <trip id="300" depart="150.00" from="-646647827" to="641121025"/>
    <trip id="301" depart="150.50" from="538766099" to="649538096"/>
    <trip id="302" depart="151.00" from="639936516" to="635689173"/>
    <trip id="303" depart="151.50" from="538766103" to="655492366#1"/>
    <trip id="304" depart="152.00" from="-647111334" to="120719658#2"/>
    <trip id="305" depart="152.50" from="639936516" to="175840210"/>
    <trip id="306" depart="153.00" from="573704873#0" to="526887917"/>
    <trip id="307" depart="153.50" from="538767561#0" to="479608894"/>
    <trip id="308" depart="154.00" from="646647827" to="262819992"/>
    <trip id="309" depart="154.50" from="639999881" to="168242590"/>
    <trip id="310" depart="155.00" from="168241645" to="-741979379"/>
    <trip id="311" depart="155.50" from="-96670626" to="-740962221"/>
    <trip id="312" depart="156.00" from="538767561#1" to="652027920"/>
    <trip id="313" depart="156.50" from="-96670625#0" to="120719658#1"/>
    <trip id="314" depart="157.00" from="538766098#0" to="644466467#1"/>
    <trip id="315" depart="157.50" from="96670625#0" to="538767558"/>
    <trip id="316" depart="158.00" from="173166882#1" to="-669036662"/>
    <trip id="317" depart="158.50" from="-96670626" to="120719659#1"/>
    <trip id="318" depart="159.00" from="-747038554" to="-333374586"/>
    <trip id="319" depart="159.50" from="538767561#1" to="169421671"/>
    <trip id="320" depart="160.00" from="96668755" to="538769212#1"/>
    <trip id="321" depart="160.50" from="639936523" to="-741980092"/>
    <trip id="322" depart="161.00" from="743279979" to="538766109"/>
    <trip id="323" depart="161.50" from="743294536" to="573704871"/>
    <trip id="324" depart="162.00" from="480227677" to="479619180"/>
    <trip id="325" depart="162.50" from="-747367551" to="-538769212#1"/>
    <trip id="326" depart="163.00" from="747037547" to="533283452"/>
    <trip id="327" depart="163.50" from="668585464" to="479390110"/>
    <trip id="328" depart="164.00" from="-640196567#0" to="634722286"/>
    <trip id="329" depart="164.50" from="-538769212#1" to="-743255421"/>
    <trip id="330" depart="165.00" from="538770176" to="175840210"/>
    <trip id="331" depart="165.50" from="96678021" to="-740962221"/>
    <trip id="332" depart="166.00" from="652027920" to="634255233"/>
    <trip id="333" depart="166.50" from="655492366#0" to="120719659#0"/>
    <trip id="334" depart="167.00" from="538767555" to="479770577"/>
    <trip id="335" depart="167.50" from="479619180" to="742170149"/>
    <trip id="336" depart="168.00" from="96677745" to="175840210"/>
    <trip id="337" depart="168.50" from="634257156" to="634255234"/>
    <trip id="338" depart="169.00" from="646400892" to="747039014"/>
    <trip id="339" depart="169.50" from="1156268462" to="1156275592"/>
    <trip id="340" depart="170.00" from="638912261" to="-743297325"/>
    <trip id="341" depart="170.50" from="-747034361" to="-640196567#0"/>
    <trip id="342" depart="171.00" from="-1038616655" to="479770577"/>
    <trip id="343" depart="171.50" from="573713869" to="173896145#1"/>
    <trip id="344" depart="172.00" from="120719659#1" to="640196567#1"/>
    <trip id="345" depart="172.50" from="640196567#0" to="479770578"/>
    <trip id="346" depart="173.00" from="639934621" to="746966173"/>
    <trip id="347" depart="173.50" from="655492363" to="634702969"/>
    <trip id="348" depart="174.00" from="638912261" to="746976887"/>
    <trip id="349" depart="174.50" from="479608893" to="538769210"/>
    <trip id="350" depart="175.00" from="635689173" to="746702000"/>
    <trip id="351" depart="175.50" from="675079026" to="-639999881"/>
    <trip id="352" depart="176.00" from="-745349346" to="175878990#0"/>
    <trip id="353" depart="176.50" from="647111334" to="572168500"/>
    <trip id="354" depart="177.00" from="173896145#0" to="-741980092"/>
    <trip id="355" depart="177.50" from="639936516" to="639999881"/>
    <trip id="356" depart="178.00" from="747037550" to="538766118#0"/>
    <trip id="357" depart="178.50" from="538766109" to="-644922572"/>
    <trip id="358" depart="179.00" from="-538769201" to="479612876"/>
    <trip id="359" depart="179.50" from="22278331#2" to="168241645"/>
    <trip id="360" depart="180.00" from="-647111334" to="747369067"/>
    <trip id="361" depart="180.50" from="737200024" to="573704871"/>
    <trip id="362" depart="181.00" from="747039987#1" to="96678446"/>
    <trip id="363" depart="181.50" from="639568595" to="168242589"/>
    <trip id="364" depart="182.00" from="-538769201" to="649538096"/>
    <trip id="365" depart="182.50" from="480227677" to="635689735"/>
    <trip id="366" depart="183.00" from="746960991" to="-747038554"/>
    <trip id="367" depart="183.50" from="573704883" to="634722287"/>
    <trip id="368" depart="184.00" from="538766103" to="-647111334"/>
    <trip id="369" depart="184.50" from="333374585" to="262819996"/>
    <trip id="370" depart="185.00" from="639568320" to="742170149"/>
    <trip id="371" depart="185.50" from="262819992" to="639936523"/>
    <trip id="372" depart="186.00" from="173896145#0" to="747037550"/>
    <trip id="373" depart="186.50" from="655696048" to="538769212#0"/>
    <trip id="374" depart="187.00" from="479770577" to="22278331#1"/>
    <trip id="375" depart="187.50" from="22278666" to="747369738"/>
    <trip id="376" depart="188.00" from="479390110" to="538767549"/>
    <trip id="377" depart="188.50" from="96670628" to="638912261"/>
    <trip id="378" depart="189.00" from="538767575" to="479552719"/>
    <trip id="379" depart="189.50" from="-96670625#0" to="403795728"/>
    <trip id="380" depart="190.00" from="649392322" to="634702969"/>
    <trip id="381" depart="190.50" from="649538096" to="1122255696"/>
    <trip id="382" depart="191.00" from="538769210" to="746967062"/>
    <trip id="383" depart="191.50" from="479612876" to="639999881"/>
    <trip id="384" depart="192.00" from="-741979379" to="96668755"/>
    <trip id="385" depart="192.50" from="634255233" to="159115036#0"/>
    <trip id="386" depart="193.00" from="-743297325" to="538769212#0"/>
    <trip id="387" depart="193.50" from="538769212#0" to="-647111334"/>
    <trip id="388" depart="194.00" from="96677745" to="746960991"/>
    <trip id="389" depart="194.50" from="479770579" to="-740962221"/>
    <trip id="390" depart="195.00" from="728236606" to="538766115"/>
    <trip id="391" depart="195.50" from="641071177#1" to="538766122"/>
    <trip id="392" depart="196.00" from="168242590" to="737200024"/>
    <trip id="393" depart="196.50" from="96670625#1" to="159115036#1"/>
    <trip id="394" depart="197.00" from="538769212#0" to="466551641"/>
    <trip id="395" depart="197.50" from="746963951" to="538766122"/>
    <trip id="396" depart="198.00" from="743297323" to="743255421"/>
    <trip id="397" depart="198.50" from="169421671" to="655492366#0"/>
    <trip id="398" depart="199.00" from="479552717" to="746976887"/>
    <trip id="399" depart="199.50" from="538766118#1" to="668585464"/>
    <trip id="400" depart="200.00" from="173166882#1" to="175840209#0"/>
    <trip id="401" depart="200.50" from="573704883" to="96678446"/>
    <trip id="402" depart="201.00" from="538766103" to="-743255421"/>
    <trip id="403" depart="201.50" from="538767564" to="314385988"/>
    <trip id="404" depart="202.00" from="538769212#0" to="538769201"/>
    <trip id="405" depart="202.50" from="479770577" to="22278666"/>
    <trip id="406" depart="203.00" from="-96670625#1" to="639999881"/>
    <trip id="407" depart="203.50" from="572168500" to="141428143#0"/>
    <trip id="408" depart="204.00" from="652549727" to="-538769201"/>
    <trip id="409" depart="204.50" from="646647827" to="640196567#1"/>
    <trip id="410" depart="205.00" from="655644175" to="466551641"/>
    <trip id="411" depart="205.50" from="639568318" to="668585464"/>
    <trip id="412" depart="206.00" from="96670625#1" to="538766114"/>
    <trip id="413" depart="206.50" from="-538767558" to="538766118#0"/>
    <trip id="414" depart="207.00" from="573713867" to="743294536"/>
    <trip id="415" depart="207.50" from="743294539" to="479619180"/>
    <trip id="416" depart="208.00" from="538767558" to="479770579"/>
    <trip id="417" depart="208.50" from="641121025" to="479552717"/>
    <trip id="418" depart="209.00" from="635689735" to="-743281343"/>
    <trip id="419" depart="209.50" from="480227677" to="747369738"/>
    <trip id="420" depart="210.00" from="314385981" to="639936522"/>
    <trip id="421" depart="210.50" from="635689731" to="741980772#1"/>
    <trip id="422" depart="211.00" from="741980772#1" to="742170149"/>
    <trip id="423" depart="211.50" from="449399358" to="22278331#1"/>
    <trip id="424" depart="212.00" from="641071178" to="652027920"/>
    <trip id="425" depart="212.50" from="743294536" to="-538766111#1"/>