<?xml version="1.0" encoding="UTF-8"?>

<!-- generated on 2024-06-26 10:53:29 by Eclipse SUMO netedit Version v1_15_0+0596-65718631903
<configuration xmlns:xsi="http://www.w3.org/2001/XMLSchema-instance" xsi:noNamespaceSchemaLocation="http://sumo.dlr.de/xsd/netconvertConfiguration.xsd">

    <input>
        <sumo-net-file value="./2024-06-26-10-51-31/osm.net.xml.gz"/>
    </input>

    <output>
        <output-file value="./2024-06-26-10-51-31/osm.net.xml.gz"/>
        <output.street-names value="true"/>
    </output>

    <processing>
        <geometry.min-radius.fix.railways value="false"/>
        <geometry.max-grade.fix value="false"/>
        <offset.disable-normalization value="true"/>
        <lefthand value="0"/>
    </processing>

    <junctions>
        <no-turnarounds value="true"/>
        <junctions.corner-detail value="5"/>
        <junctions.limit-turn-speed value="5.50"/>
        <rectangular-lane-cut value="0"/>
    </junctions>

    <pedestrian>
        <walkingareas value="0"/>
    </pedestrian>

</configuration>
-->

<net version="1.9" junctionCornerDetail="5" limitTurnSpeed="5.50" xmlns:xsi="http://www.w3.org/2001/XMLSchema-instance" xsi:noNamespaceSchemaLocation="http://sumo.dlr.de/xsd/net_file.xsd">

    <location netOffset="-330861.72,-4688443.06" convBoundary="99.47,0.00,1454.79,885.96" origBoundary="-71.053122,42.330102,-71.024996,42.341582" projParameter="+proj=utm +zone=19 +ellps=WGS84 +datum=WGS84 +units=m +no_defs"/>

    <type id="highway.bridleway" priority="1" numLanes="1" speed="2.78" allow="pedestrian" oneway="1" width="2.00"/>
    <type id="highway.bus_guideway" priority="1" numLanes="1" speed="27.78" allow="bus" oneway="1"/>
    <type id="highway.cycleway" priority="1" numLanes="1" speed="5.56" allow="bicycle" oneway="0" width="1.00"/>
    <type id="highway.footway" priority="1" numLanes="1" speed="2.78" allow="pedestrian" oneway="1" width="2.00"/>
    <type id="highway.ford" priority="1" numLanes="1" speed="2.78" allow="army" oneway="0"/>
    <type id="highway.living_street" priority="2" numLanes="1" speed="2.78" disallow="tram rail_urban rail rail_electric rail_fast ship" oneway="0"/>
    <type id="highway.motorway" priority="14" numLanes="2" speed="39.44" allow="private emergency authority army vip passenger hov taxi bus coach delivery truck trailer motorcycle evehicle custom1 custom2" oneway="1"/>
    <type id="highway.motorway_link" priority="9" numLanes="1" speed="22.22" allow="private emergency authority army vip passenger hov taxi bus coach delivery truck trailer motorcycle evehicle custom1 custom2" oneway="1"/>
    <type id="highway.path" priority="1" numLanes="1" speed="5.56" allow="pedestrian bicycle" oneway="0" width="2.00"/>
    <type id="highway.pedestrian" priority="1" numLanes="1" speed="2.78" allow="pedestrian" oneway="1" width="2.00"/>
    <type id="highway.primary" priority="12" numLanes="2" speed="27.78" disallow="tram rail_urban rail rail_electric rail_fast ship" oneway="0"/>
    <type id="highway.primary_link" priority="7" numLanes="1" speed="22.22" disallow="tram rail_urban rail rail_electric rail_fast ship" oneway="0"/>
    <type id="highway.raceway" priority="15" numLanes="2" speed="83.33" allow="vip" oneway="0"/>
    <type id="highway.residential" priority="3" numLanes="1" speed="13.89" disallow="tram rail_urban rail rail_electric rail_fast ship" oneway="0"/>
    <type id="highway.secondary" priority="11" numLanes="1" speed="27.78" disallow="tram rail_urban rail rail_electric rail_fast ship" oneway="0"/>
    <type id="highway.secondary_link" priority="6" numLanes="1" speed="22.22" disallow="tram rail_urban rail rail_electric rail_fast ship" oneway="0"/>
    <type id="highway.service" priority="1" numLanes="1" speed="5.56" allow="pedestrian delivery bicycle" oneway="0"/>
    <type id="highway.stairs" priority="1" numLanes="1" speed="1.39" allow="pedestrian" oneway="1" width="2.00"/>
    <type id="highway.step" priority="1" numLanes="1" speed="1.39" allow="pedestrian" oneway="1" width="2.00"/>
    <type id="highway.steps" priority="1" numLanes="1" speed="1.39" allow="pedestrian" oneway="1" width="2.00"/>
    <type id="highway.tertiary" priority="10" numLanes="1" speed="22.22" disallow="tram rail_urban rail rail_electric rail_fast ship" oneway="0"/>
    <type id="highway.tertiary_link" priority="5" numLanes="1" speed="22.22" disallow="tram rail_urban rail rail_electric rail_fast ship" oneway="0"/>
    <type id="highway.track" priority="1" numLanes="1" speed="5.56" allow="pedestrian motorcycle moped bicycle" oneway="0"/>
    <type id="highway.trunk" priority="13" numLanes="2" speed="27.78" disallow="pedestrian bicycle tram rail_urban rail rail_electric rail_fast ship" oneway="0"/>
    <type id="highway.trunk_link" priority="8" numLanes="1" speed="22.22" disallow="pedestrian bicycle tram rail_urban rail rail_electric rail_fast ship" oneway="0"/>
    <type id="highway.unclassified" priority="4" numLanes="1" speed="13.89" disallow="tram rail_urban rail rail_electric rail_fast ship" oneway="0"/>
    <type id="highway.unsurfaced" priority="1" numLanes="1" speed="8.33" disallow="tram rail_urban rail rail_electric rail_fast ship" oneway="0"/>
    <type id="railway.highspeed" priority="21" numLanes="1" speed="69.44" allow="rail_fast" oneway="1"/>
    <type id="railway.light_rail" priority="19" numLanes="1" speed="27.78" allow="rail_urban" oneway="1"/>
    <type id="railway.preserved" priority="16" numLanes="1" speed="27.78" allow="rail" oneway="1"/>
    <type id="railway.rail" priority="20" numLanes="1" speed="44.44" allow="rail" oneway="1"/>
    <type id="railway.subway" priority="18" numLanes="1" speed="27.78" allow="rail_urban" oneway="1"/>
    <type id="railway.tram" priority="17" numLanes="1" speed="13.89" allow="tram" oneway="1"/>

    <edge id=":3007948827_0" function="internal">
        <lane id=":3007948827_0_0" index="0" disallow="tram rail_urban rail rail_electric rail_fast ship" speed="5.89" length="9.02" shape="187.76,337.93 185.86,339.41 185.20,341.10 185.78,343.01 187.60,345.14"/>
    </edge>
    <edge id=":3007948827_1" function="internal">
        <lane id=":3007948827_1_0" index="0" disallow="tram rail_urban rail rail_electric rail_fast ship" speed="11.18" length="14.41" shape="187.76,337.93 184.78,339.97 182.24,342.43 179.93,345.16 177.62,348.03"/>
    </edge>
    <edge id=":3007948827_2" function="internal">
        <lane id=":3007948827_2_0" index="0" disallow="tram rail_urban rail rail_electric rail_fast ship" speed="3.71" length="4.91" shape="187.76,337.93 186.29,338.26 185.39,337.99 185.07,337.10 185.33,335.61"/>
    </edge>
    <edge id=":3007948827_3" function="internal">
        <lane id=":3007948827_3_0" index="0" disallow="tram rail_urban rail rail_electric rail_fast ship" speed="7.51" length="9.11" shape="176.82,335.41 178.62,336.54 180.63,336.96 182.87,336.65 185.33,335.61"/>
    </edge>
    <edge id=":3007948827_4" function="internal">
        <lane id=":3007948827_4_0" index="0" disallow="tram rail_urban rail rail_electric rail_fast ship" speed="27.78" length="14.49" shape="176.82,335.41 187.60,345.14"/>
        <lane id=":3007948827_4_1" index="1" disallow="tram rail_urban rail rail_electric rail_fast ship" speed="27.78" length="14.49" shape="174.70,337.80 185.44,347.50"/>
    </edge>
    <edge id=":3007948827_6" function="internal">
        <lane id=":3007948827_6_0" index="0" disallow="tram rail_urban rail rail_electric rail_fast ship" speed="7.46" length="11.90" shape="174.70,337.80 177.34,340.63 178.71,343.28 178.81,345.74 177.62,348.03"/>
    </edge>
    <edge id=":3007948827_7" function="internal">
        <lane id=":3007948827_7_0" index="0" disallow="tram rail_urban rail rail_electric rail_fast ship" speed="11.18" length="14.63" shape="175.16,345.99 177.48,343.08 179.79,340.25 182.33,337.70 185.33,335.61"/>
    </edge>
    <edge id=":3007948827_8" function="internal">
        <lane id=":3007948827_8_0" index="0" disallow="tram rail_urban rail rail_electric rail_fast ship" speed="7.23" length="11.82" shape="175.16,345.99 177.20,344.40 179.59,344.12 182.34,345.15 185.44,347.50"/>
    </edge>
    <edge id=":3007948827_9" function="internal">
        <lane id=":3007948827_9_0" index="0" disallow="tram rail_urban rail rail_electric rail_fast ship" speed="3.65" length="4.67" shape="175.16,345.99 176.54,345.58 177.41,345.78 177.77,346.60 177.62,348.03"/>
    </edge>
    <edge id=":3007948869_0" function="internal">
        <lane id=":3007948869_0_0" index="0" disallow="tram rail_urban rail rail_electric rail_fast ship" speed="3.65" length="4.67" shape="177.18,348.56 175.80,348.97 174.93,348.77 174.57,347.95 174.72,346.52"/>
    </edge>
    <edge id=":4257756852_0" function="internal">
        <lane id=":4257756852_0_0" index="0" disallow="tram rail_urban rail rail_electric rail_fast ship" speed="19.48" length="8.36" shape="673.09,608.01 670.64,608.47 669.10,609.55 667.57,610.64 665.12,611.13"/>
        <lane id=":4257756852_0_1" index="1" disallow="tram rail_urban rail rail_electric rail_fast ship" speed="19.48" length="8.36" shape="673.09,608.01 665.12,607.93"/>
    </edge>
    <edge id=":4257756852_2" function="internal">
        <lane id=":4257756852_2_0" index="0" disallow="tram rail_urban rail rail_electric rail_fast ship" speed="19.48" length="8.84" shape="665.14,601.53 667.60,602.04 669.14,603.15 670.67,604.27 673.14,604.81"/>
    </edge>
    <edge id=":5976148006_0" function="internal">
        <lane id=":5976148006_0_0" index="0" disallow="tram rail_urban rail rail_electric rail_fast ship" speed="11.18" length="10.53" shape="949.62,671.24 949.73,681.77"/>
    </edge>
    <edge id=":5976148006_1" function="internal">
        <lane id=":5976148006_1_0" index="0" disallow="tram rail_urban rail rail_electric rail_fast ship" speed="7.12" length="11.38" shape="944.30,673.30 946.64,673.71 948.32,675.26 949.35,677.95 949.73,681.77"/>
    </edge>
    <edge id=":5976362893_0" function="internal">
        <lane id=":5976362893_0_0" index="0" disallow="tram rail_urban rail rail_electric rail_fast ship" speed="11.18" length="10.68" shape="1127.80,608.28 1117.12,608.31"/>
    </edge>
    <edge id=":5976362893_1" function="internal">
        <lane id=":5976362893_1_0" index="0" disallow="tram rail_urban rail rail_electric rail_fast ship" speed="6.94" length="11.68" shape="1127.80,608.28 1125.12,607.73 1123.40,606.11 1122.65,603.41 1122.87,599.65"/>
    </edge>
    <edge id=":5976362893_2" function="internal">
        <lane id=":5976362893_2_0" index="0" disallow="tram rail_urban rail rail_electric rail_fast ship" speed="3.65" length="4.67" shape="1127.80,608.28 1126.61,607.47 1126.21,606.67 1126.61,605.87 1127.82,605.08"/>
    </edge>
    <edge id=":5976362893_3" function="internal">
        <lane id=":5976362893_3_0" index="0" disallow="tram rail_urban rail rail_electric rail_fast ship" speed="6.84" length="8.76" shape="1117.09,605.11 1119.29,604.75 1120.98,603.72 1122.18,602.02 1122.87,599.65"/>
    </edge>
    <edge id=":5976362893_4" function="internal">
        <lane id=":5976362893_4_0" index="0" disallow="tram rail_urban rail rail_electric rail_fast ship" speed="11.18" length="10.72" shape="1117.09,605.11 1127.82,605.08"/>
    </edge>
    <edge id=":5976362893_5" function="internal">
        <lane id=":5976362893_5_0" index="0" disallow="tram rail_urban rail rail_electric rail_fast ship" speed="3.65" length="4.67" shape="1117.09,605.11 1118.30,605.90 1118.71,606.69 1118.32,607.50 1117.12,608.31"/>
    </edge>
    <edge id=":5976628313_0" function="internal">
        <lane id=":5976628313_0_0" index="0" disallow="tram rail_urban rail rail_electric rail_fast ship" speed="5.60" length="9.37" shape="724.41,356.77 723.96,353.64 722.91,351.96 721.26,351.71 719.00,352.91"/>
    </edge>
    <edge id=":5976628313_1" function="internal">
        <lane id=":5976628313_1_0" index="0" disallow="tram rail_urban rail rail_electric rail_fast ship" speed="22.22" length="11.68" shape="727.61,356.65 726.99,353.18 725.86,350.80 724.81,348.57 724.45,345.54"/>
    </edge>
    <edge id=":5976628313_2" function="internal">
        <lane id=":5976628313_2_0" index="0" disallow="tram rail_urban rail rail_electric rail_fast ship" speed="10.25" length="1.29" shape="727.64,345.69 726.81,346.67"/>
    </edge>
    <edge id=":5976628313_3" function="internal">
        <lane id=":5976628313_3_0" index="0" disallow="tram rail_urban rail rail_electric rail_fast ship" speed="3.65" length="1.28" shape="727.64,345.69 726.88,346.72"/>
    </edge>
    <edge id=":5976628313_4" function="internal">
        <lane id=":5976628313_4_0" index="0" disallow="tram rail_urban rail rail_electric rail_fast ship" speed="10.25" length="10.01" shape="726.81,346.67 726.39,347.16 723.60,349.45 720.68,351.67 719.00,352.91"/>
    </edge>
    <edge id=":5976628313_5" function="internal">
        <lane id=":5976628313_5_0" index="0" disallow="tram rail_urban rail rail_electric rail_fast ship" speed="3.65" length="3.39" shape="726.88,346.72 726.79,346.85 725.97,347.21 725.19,346.77 724.45,345.54"/>
    </edge>
    <edge id=":5976628321_0" function="internal">
        <lane id=":5976628321_0_0" index="0" disallow="tram rail_urban rail rail_electric rail_fast ship" speed="22.22" length="11.55" shape="725.13,298.33 725.18,286.77"/>
        <lane id=":5976628321_0_1" index="1" disallow="tram rail_urban rail rail_electric rail_fast ship" speed="22.22" length="11.55" shape="728.33,298.33 728.38,286.79"/>
    </edge>
    <edge id=":5976628321_2" function="internal">
        <lane id=":5976628321_2_0" index="0" disallow="tram rail_urban rail rail_electric rail_fast ship" speed="5.72" length="10.83" shape="719.40,290.19 721.90,292.18 723.70,292.27 724.79,290.47 725.18,286.77"/>
    </edge>
    <edge id=":5976708386_0" function="internal">
        <lane id=":5976708386_0_0" index="0" disallow="tram rail_urban rail rail_electric rail_fast ship" speed="11.18" length="9.39" shape="532.02,540.96 525.12,547.34"/>
    </edge>
    <edge id=":5976708386_1" function="internal">
        <lane id=":5976708386_1_0" index="0" disallow="tram rail_urban rail rail_electric rail_fast ship" speed="3.65" length="4.67" shape="532.02,540.96 530.59,541.18 529.75,540.87 529.50,540.01 529.84,538.61"/>
    </edge>
    <edge id=":5976708386_2" function="internal">
        <lane id=":5976708386_2_0" index="0" disallow="tram rail_urban rail rail_electric rail_fast ship" speed="5.72" length="9.06" shape="523.00,537.65 524.08,539.85 525.57,540.74 527.50,540.32 529.84,538.61"/>
    </edge>
    <edge id=":5976708386_3" function="internal">
        <lane id=":5976708386_3_0" index="0" disallow="tram rail_urban rail rail_electric rail_fast ship" speed="8.27" length="9.97" shape="523.00,537.65 523.56,539.47 524.44,542.60 525.14,545.67 525.12,547.34"/>
    </edge>
    <edge id=":5976708386_4" function="internal">
        <lane id=":5976708386_4_0" index="0" disallow="tram rail_urban rail rail_electric rail_fast ship" speed="11.18" length="9.40" shape="522.94,544.98 529.84,538.61"/>
    </edge>
    <edge id=":5976708386_5" function="internal">
        <lane id=":5976708386_5_0" index="0" disallow="tram rail_urban rail rail_electric rail_fast ship" speed="3.65" length="4.68" shape="522.94,544.98 524.37,544.76 525.21,545.07 525.46,545.93 525.12,547.34"/>
    </edge>
    <edge id=":61343046_0" function="internal">
        <lane id=":61343046_0_0" index="0" disallow="tram rail_urban rail rail_electric rail_fast ship" speed="27.78" length="0.10" shape="696.95,685.93 696.88,685.86"/>
    </edge>
    <edge id=":61343046_1" function="internal">
        <lane id=":61343046_1_0" index="0" disallow="tram rail_urban rail rail_electric rail_fast ship" speed="3.65" length="2.34" shape="696.95,685.93 696.65,684.52 696.93,683.67"/>
    </edge>
    <edge id=":61343046_4" function="internal">
        <lane id=":61343046_4_0" index="0" disallow="tram rail_urban rail rail_electric rail_fast ship" speed="3.65" length="2.34" shape="696.93,683.67 697.78,683.38 699.19,683.65"/>
    </edge>
    <edge id=":61343046_2" function="internal">
        <lane id=":61343046_2_0" index="0" disallow="tram rail_urban rail rail_electric rail_fast ship" speed="27.78" length="0.10" shape="699.26,683.72 699.19,683.65"/>
    </edge>
    <edge id=":61343046_3" function="internal">
        <lane id=":61343046_3_0" index="0" disallow="tram rail_urban rail rail_electric rail_fast ship" speed="3.65" length="2.34" shape="699.26,683.72 699.47,685.14 699.14,685.98"/>
    </edge>
    <edge id=":61343046_5" function="internal">
        <lane id=":61343046_5_0" index="0" disallow="tram rail_urban rail rail_electric rail_fast ship" speed="3.65" length="2.34" shape="699.14,685.98 698.28,686.22 696.88,685.86"/>
    </edge>
    <edge id=":61343522_0" function="internal">
        <lane id=":61343522_0_0" index="0" disallow="tram rail_urban rail rail_electric rail_fast ship" speed="3.65" length="4.67" shape="447.63,759.54 446.21,759.75 445.37,759.43 445.13,758.57 445.48,757.17"/>
    </edge>
    <edge id=":61343522_1" function="internal">
        <lane id=":61343522_1_0" index="0" disallow="tram rail_urban rail rail_electric rail_fast ship" speed="6.51" length="9.02" shape="437.57,756.81 439.48,758.38 441.43,758.96 443.43,758.56 445.48,757.17"/>
    </edge>
    <edge id=":61343566_0" function="internal">
        <lane id=":61343566_0_0" index="0" disallow="tram rail_urban rail rail_electric rail_fast ship" speed="6.11" length="5.48" shape="954.27,668.36 953.16,668.80 951.60,669.47 950.21,670.26 949.62,671.04"/>
    </edge>
    <edge id=":61343566_1" function="internal">
        <lane id=":61343566_1_0" index="0" disallow="tram rail_urban rail rail_electric rail_fast ship" speed="11.18" length="5.77" shape="949.57,665.27 949.62,671.04"/>
    </edge>
    <edge id=":61343646_0" function="internal">
        <lane id=":61343646_0_0" index="0" disallow="tram rail_urban rail rail_electric rail_fast ship" speed="3.65" length="4.67" shape="1454.83,605.33 1456.01,606.16 1456.39,606.97 1455.97,607.76 1454.75,608.53"/>
    </edge>
    <edge id=":61343648_0" function="internal">
        <lane id=":61343648_0_0" index="0" disallow="tram rail_urban rail rail_electric rail_fast ship" speed="6.55" length="8.98" shape="377.24,682.58 375.71,684.47 375.14,686.41 375.53,688.43 376.89,690.50"/>
    </edge>
    <edge id=":61343648_1" function="internal">
        <lane id=":61343648_1_0" index="0" disallow="tram rail_urban rail rail_electric rail_fast ship" speed="3.65" length="4.67" shape="377.24,682.58 375.81,682.81 374.98,682.49 374.73,681.63 375.07,680.23"/>
    </edge>
    <edge id=":61343648_2" function="internal">
        <lane id=":61343648_2_0" index="0" disallow="tram rail_urban rail rail_electric rail_fast ship" speed="6.55" length="9.05" shape="367.11,679.99 369.04,681.52 371.01,682.07 373.02,681.64 375.07,680.23"/>
    </edge>
    <edge id=":61343648_3" function="internal">
        <lane id=":61343648_3_0" index="0" disallow="tram rail_urban rail rail_electric rail_fast ship" speed="11.18" length="14.36" shape="367.11,679.99 376.89,690.50"/>
    </edge>
    <edge id=":61344111_0" function="internal">
        <lane id=":61344111_0_0" index="0" disallow="tram rail_urban rail rail_electric rail_fast ship" speed="6.51" length="9.02" shape="253.16,547.57 251.60,549.48 251.02,551.43 251.42,553.43 252.82,555.48"/>
    </edge>
    <edge id=":61344111_1" function="internal">
        <lane id=":61344111_1_0" index="0" disallow="tram rail_urban rail rail_electric rail_fast ship" speed="3.65" length="4.67" shape="253.16,547.57 251.74,547.79 250.90,547.47 250.65,546.61 251.00,545.21"/>
    </edge>
    <edge id=":61344111_2" function="internal">
        <lane id=":61344111_2_0" index="0" disallow="tram rail_urban rail rail_electric rail_fast ship" speed="6.55" length="9.06" shape="243.03,544.96 244.97,546.49 246.94,547.05 248.95,546.62 251.00,545.21"/>
    </edge>
    <edge id=":61344111_3" function="internal">
        <lane id=":61344111_3_0" index="0" disallow="tram rail_urban rail rail_electric rail_fast ship" speed="11.18" length="14.36" shape="243.03,544.96 252.82,555.48"/>
    </edge>
    <edge id=":61344116_0" function="internal">
        <lane id=":61344116_0_0" index="0" disallow="tram rail_urban rail rail_electric rail_fast ship" speed="8.36" length="9.18" shape="636.95,616.70 635.41,614.14 633.83,612.29 632.19,611.14 630.50,610.69"/>
    </edge>
    <edge id=":61344116_1" function="internal">
        <lane id=":61344116_1_0" index="0" disallow="tram rail_urban rail rail_electric rail_fast ship" speed="7.97" length="12.18" shape="636.95,616.70 635.10,611.43 635.80,607.68 638.09,606.10"/>
    </edge>
    <edge id=":61344116_2" function="internal">
        <lane id=":61344116_2_0" index="0" disallow="tram rail_urban rail rail_electric rail_fast ship" speed="3.77" length="5.13" shape="636.95,616.70 637.76,615.34 638.61,614.85 639.51,615.24 640.46,616.51"/>
    </edge>
    <edge id=":61344116_11" function="internal">
        <lane id=":61344116_11_0" index="0" disallow="tram rail_urban rail rail_electric rail_fast ship" speed="7.97" length="7.06" shape="638.09,606.10 639.07,605.43 644.90,604.69"/>
    </edge>
    <edge id=":61344116_3" function="internal">
        <lane id=":61344116_3_0" index="0" disallow="tram rail_urban rail rail_electric rail_fast ship" speed="5.74" length="9.28" shape="644.88,611.09 641.89,611.42 640.15,612.44 639.68,614.13 640.46,616.51"/>
    </edge>
    <edge id=":61344116_4" function="internal">
        <lane id=":61344116_4_0" index="0" disallow="tram rail_urban rail rail_electric rail_fast ship" speed="27.78" length="14.30" shape="644.88,611.09 630.50,610.69"/>
        <lane id=":61344116_4_1" index="1" disallow="tram rail_urban rail rail_electric rail_fast ship" speed="27.78" length="14.30" shape="644.89,607.89 630.68,607.49"/>
    </edge>
    <edge id=":61344116_6" function="internal">
        <lane id=":61344116_6_0" index="0" disallow="tram rail_urban rail rail_electric rail_fast ship" speed="3.65" length="1.44" shape="644.89,607.89 643.69,607.09"/>
    </edge>
    <edge id=":61344116_12" function="internal">
        <lane id=":61344116_12_0" index="0" disallow="tram rail_urban rail rail_electric rail_fast ship" speed="3.65" length="3.23" shape="643.69,607.09 643.29,606.29 643.70,605.49 644.90,604.69"/>
    </edge>
    <edge id=":61344116_7" function="internal">
        <lane id=":61344116_7_0" index="0" disallow="tram rail_urban rail rail_electric rail_fast ship" speed="27.78" length="13.95" shape="631.05,601.10 644.91,601.49"/>
        <lane id=":61344116_7_1" index="1" disallow="tram rail_urban rail rail_electric rail_fast ship" speed="27.78" length="13.95" shape="630.87,604.30 644.90,604.69"/>
    </edge>
    <edge id=":61344116_9" function="internal">
        <lane id=":61344116_9_0" index="0" disallow="tram rail_urban rail rail_electric rail_fast ship" speed="10.84" length="15.86" shape="630.87,604.30 632.72,605.13 634.93,607.45 637.52,611.24 640.46,616.51"/>
    </edge>
    <edge id=":61344116_10" function="internal">
        <lane id=":61344116_10_0" index="0" disallow="tram rail_urban rail rail_electric rail_fast ship" speed="3.65" length="2.34" shape="630.87,604.30 632.02,605.17 632.37,605.99"/>
    </edge>
    <edge id=":61344116_13" function="internal">
        <lane id=":61344116_13_0" index="0" disallow="tram rail_urban rail rail_electric rail_fast ship" speed="3.65" length="2.34" shape="632.37,605.99 631.93,606.76 630.68,607.49"/>
    </edge>
    <edge id=":61344177_0" function="internal">
        <lane id=":61344177_0_0" index="0" disallow="tram rail_urban rail rail_electric rail_fast ship" speed="6.49" length="9.04" shape="314.90,615.80 313.32,617.72 312.73,619.68 313.15,621.67 314.56,623.71"/>
    </edge>
    <edge id=":61344177_1" function="internal">
        <lane id=":61344177_1_0" index="0" disallow="tram rail_urban rail rail_electric rail_fast ship" speed="3.65" length="4.67" shape="314.90,615.80 313.47,616.02 312.63,615.70 312.39,614.84 312.74,613.44"/>
    </edge>
    <edge id=":61344177_2" function="internal">
        <lane id=":61344177_2_0" index="0" disallow="tram rail_urban rail rail_electric rail_fast ship" speed="6.48" length="9.03" shape="304.84,613.05 306.74,614.64 308.69,615.24 310.69,614.84 312.74,613.44"/>
    </edge>
    <edge id=":61344177_3" function="internal">
        <lane id=":61344177_3_0" index="0" disallow="tram rail_urban rail rail_electric rail_fast ship" speed="11.18" length="14.43" shape="304.84,613.05 314.56,623.71"/>
    </edge>
    <edge id=":61344179_0" function="internal">
        <lane id=":61344179_0_0" index="0" disallow="tram rail_urban rail rail_electric rail_fast ship" speed="6.56" length="9.07" shape="954.73,608.90 952.28,609.25 950.52,610.30 949.45,612.06 949.06,614.52"/>
    </edge>
    <edge id=":61344179_1" function="internal">
        <lane id=":61344179_1_0" index="0" disallow="tram rail_urban rail rail_electric rail_fast ship" speed="11.18" length="11.25" shape="954.73,608.90 943.47,608.89"/>
    </edge>
    <edge id=":61344179_2" function="internal">
        <lane id=":61344179_2_0" index="0" disallow="tram rail_urban rail rail_electric rail_fast ship" speed="7.44" length="11.80" shape="954.73,608.90 952.31,608.34 950.53,606.68 949.41,603.91 948.94,600.04"/>
    </edge>
    <edge id=":61344179_3" function="internal">
        <lane id=":61344179_3_0" index="0" disallow="tram rail_urban rail rail_electric rail_fast ship" speed="3.65" length="4.67" shape="954.73,608.90 953.53,608.10 953.13,607.30 953.53,606.50 954.73,605.70"/>
    </edge>
    <edge id=":61344179_4" function="internal">
        <lane id=":61344179_4_0" index="0" disallow="tram rail_urban rail rail_electric rail_fast ship" speed="6.44" length="9.03" shape="943.47,605.69 945.94,605.34 947.67,604.28 948.67,602.51 948.94,600.04"/>
    </edge>
    <edge id=":61344179_5" function="internal">
        <lane id=":61344179_5_0" index="0" disallow="tram rail_urban rail rail_electric rail_fast ship" speed="11.18" length="11.26" shape="943.47,605.69 954.73,605.70"/>
    </edge>
    <edge id=":61344179_6" function="internal">
        <lane id=":61344179_6_0" index="0" disallow="tram rail_urban rail rail_electric rail_fast ship" speed="7.30" length="11.79" shape="943.47,605.69 945.97,606.24 947.74,607.90 948.76,610.66 949.06,614.52"/>
    </edge>
    <edge id=":61344179_7" function="internal">
        <lane id=":61344179_7_0" index="0" disallow="tram rail_urban rail rail_electric rail_fast ship" speed="3.65" length="4.67" shape="943.47,605.69 944.67,606.49 945.07,607.29 944.67,608.09 943.47,608.89"/>
    </edge>
    <edge id=":61344181_0" function="internal">
        <lane id=":61344181_0_0" index="0" disallow="tram rail_urban rail rail_electric rail_fast ship" speed="6.48" length="9.03" shape="732.85,608.76 730.39,609.11 728.65,610.16 727.62,611.92 727.30,614.38"/>
    </edge>
    <edge id=":61344181_1" function="internal">
        <lane id=":61344181_1_0" index="0" disallow="tram rail_urban rail rail_electric rail_fast ship" speed="11.18" length="14.43" shape="732.85,608.76 718.42,608.75"/>
    </edge>
    <edge id=":61344181_2" function="internal">
        <lane id=":61344181_2_0" index="0" disallow="tram rail_urban rail rail_electric rail_fast ship" speed="7.32" length="2.53" shape="732.85,608.76 730.37,608.21"/>
    </edge>
    <edge id=":61344181_3" function="internal">
        <lane id=":61344181_3_0" index="0" disallow="tram rail_urban rail rail_electric rail_fast ship" speed="3.65" length="1.44" shape="732.85,608.76 731.65,607.96"/>
    </edge>
    <edge id=":61344181_8" function="internal">
        <lane id=":61344181_8_0" index="0" disallow="tram rail_urban rail rail_electric rail_fast ship" speed="7.32" length="9.23" shape="730.37,608.21 728.62,606.56 727.57,603.80 727.25,599.94"/>
    </edge>
    <edge id=":61344181_9" function="internal">
        <lane id=":61344181_9_0" index="0" disallow="tram rail_urban rail rail_electric rail_fast ship" speed="3.65" length="3.23" shape="731.65,607.96 731.25,607.16 731.65,606.36 732.85,605.56"/>
    </edge>
    <edge id=":61344181_4" function="internal">
        <lane id=":61344181_4_0" index="0" disallow="tram rail_urban rail rail_electric rail_fast ship" speed="6.52" length="9.06" shape="718.42,605.55 720.87,605.20 722.62,604.15 723.68,602.39 724.05,599.92"/>
    </edge>
    <edge id=":61344181_5" function="internal">
        <lane id=":61344181_5_0" index="0" disallow="tram rail_urban rail rail_electric rail_fast ship" speed="11.18" length="14.43" shape="718.42,605.55 732.85,605.56"/>
    </edge>
    <edge id=":61344181_6" function="internal">
        <lane id=":61344181_6_0" index="0" disallow="tram rail_urban rail rail_electric rail_fast ship" speed="7.39" length="2.50" shape="718.42,605.55 720.86,606.11"/>
    </edge>
    <edge id=":61344181_7" function="internal">
        <lane id=":61344181_7_0" index="0" disallow="tram rail_urban rail rail_electric rail_fast ship" speed="3.65" length="1.44" shape="718.42,605.55 719.62,606.35"/>
    </edge>
    <edge id=":61344181_10" function="internal">
        <lane id=":61344181_10_0" index="0" disallow="tram rail_urban rail rail_electric rail_fast ship" speed="7.39" length="9.29" shape="720.86,606.11 722.62,607.77 723.70,610.54 724.10,614.42"/>
    </edge>
    <edge id=":61344181_11" function="internal">
        <lane id=":61344181_11_0" index="0" disallow="tram rail_urban rail rail_electric rail_fast ship" speed="3.65" length="3.23" shape="719.62,606.35 720.02,607.15 719.62,607.95 718.42,608.75"/>
    </edge>
    <edge id=":61344615_0" function="internal">
        <lane id=":61344615_0_0" index="0" disallow="tram rail_urban rail rail_electric rail_fast ship" speed="22.22" length="11.20" shape="724.81,378.92 724.78,367.72"/>