<?xml version="1.0" encoding="UTF-8"?>

<!-- generated on 2024-06-26 10:51:36.112543 by osmWebWizard.py UNKNOWN
<configuration>
    <allow-fringe.min-length value="1000.0"/>
    <end value="3600"/>
    <fringe-factor value="5"/>
    <fringe-start-attributes value="departSpeed=&quot;max&quot;"/>
    <insertion-density value="12.0"/>
    <lanes value="True"/>
    <min-distance.fringe value="10.0"/>
    <min-distance value="300.0"/>
    <net-file value="/home/wayne/code/MagicDriveLimSim/2024-06-26-10-51-31/osm.net.xml.gz"/>
    <remove-loops value="True"/>
    <route-file value="/home/wayne/code/MagicDriveLimSim/2024-06-26-10-51-31/osm.passenger.rou.xml"/>
    <trip-attributes value="departLane=&quot;best&quot;"/>
    <output-trip-file value="/home/wayne/code/MagicDriveLimSim/2024-06-26-10-51-31/osm.passenger.trips.xml"/>
    <prefix value="veh"/>
    <validate value="True"/>
    <vehicle-class value="passenger"/>
</configuration>
-->

<!-- generated on 2024-06-26 10:51:36 by Eclipse SUMO duarouter Version v1_15_0+0596-65718631903
<configuration xmlns:xsi="http://www.w3.org/2001/XMLSchema-instance" xsi:noNamespaceSchemaLocation="http://sumo.dlr.de/xsd/duarouterConfiguration.xsd">

    <input>
        <net-file value="/home/wayne/code/MagicDriveLimSim/2024-06-26-10-51-31/osm.net.xml.gz"/>
        <route-files value="/home/wayne/code/MagicDriveLimSim/2024-06-26-10-51-31/osm.passenger.trips.xml"/>
    </input>

    <output>
        <output-file value="/home/wayne/code/MagicDriveLimSim/2024-06-26-10-51-31/osm.passenger.trips.xml.tmp"/>
        <alternatives-output value="NUL"/>
        <write-trips value="true"/>
    </output>

    <processing>
        <remove-loops value="true"/>
    </processing>

    <time>
        <begin value="0"/>
        <end value="3600"/>
    </time>

    <report>
        <no-warnings value="true"/>
        <ignore-errors value="true"/>
        <no-step-log value="true"/>
    </report>

</configuration>
-->

<routes xmlns:xsi="http://www.w3.org/2001/XMLSchema-instance" xsi:noNamespaceSchemaLocation="http://sumo.dlr.de/xsd/routes_file.xsd">
    <vType id="veh_passenger" vClass="passenger"/>
    <trip id="veh11" type="veh_passenger" depart="12.51" departLane="best" from="-8642174#1" to="-8642174#1"/>
    <trip id="veh13" type="veh_passenger" depart="14.78" departLane="best" from="-426452562#3" to="-426452562#3"/>
    <trip id="veh27" type="veh_passenger" depart="30.70" departLane="best" from="-8644416#3" to="-8644416#3"/>
    <trip id="veh28" type="veh_passenger" depart="31.84" departLane="best" from="-8643843#4" to="-8643843#4"/>
    <trip id="veh29" type="veh_passenger" depart="32.98" departLane="best" from="633109347#1" to="633109347#1"/>
    <trip id="veh50" type="veh_passenger" depart="56.86" departLane="best" from="633109347#3" to="633109347#3"/>
    <trip id="veh58" type="veh_passenger" depart="65.95" departLane="best" from="8643878#5" to="8643878#5"/>
    <trip id="veh61" type="veh_passenger" depart="69.36" departLane="best" from="-113214547#14" to="-113214547#14"/>
    <trip id="veh67" type="veh_passenger" depart="76.19" departLane="best" from="8644084#4" to="8644084#4"/>
    <trip id="veh76" type="veh_passenger" depart="86.42" departLane="best" from="533608798#1" to="533608798#1"/>
    <trip id="veh82" type="veh_passenger" depart="93.24" departLane="best" from="-8647261#1" to="-8647261#1"/>
    <trip id="veh87" type="veh_passenger" depart="98.93" departLane="best" from="8640002#1" to="8640002#1"/>
    <trip id="veh98" type="veh_passenger" depart="111.44" departLane="best" from="-8644084#5" to="-8644084#5"/>
    <trip id="veh127" type="veh_passenger" depart="144.41" departLane="best" from="8647261#2" to="8647261#2"/>
    <trip id="veh129" type="veh_passenger" depart="146.69" departLane="best" from="591235996#1" to="591235996#1"/>
    <trip id="veh135" type="veh_passenger" depart="153.51" departLane="best" departSpeed="max" from="-8647171#3" to="-8647171#3"/>
    <trip id="veh138" type="veh_passenger" depart="156.92" departLane="best" from="8647749#4" to="8647749#4"/>
    <trip id="veh145" type="veh_passenger" depart="164.88" departLane="best" from="435330255" to="435330255"/>
    <trip id="veh155" type="veh_passenger" depart="176.25" departLane="best" from="8648471#1" to="8648471#1"/>
    <trip id="veh156" type="veh_passenger" depart="177.39" departLane="best" from="8644084#3" to="8644084#3"/>
    <trip id="veh165" type="veh_passenger" depart="187.63" departLane="best" from="-113214547#8" to="-113214547#8"/>
    <trip id="veh175" type="veh_passenger" depart="199.00" departLane="best" departSpeed="max" from="8640496" to="8640496"/>
    <trip id="veh186" type="veh_passenger" depart="211.50" departLane="best" departSpeed="max" from="591235996#1" to="591235996#1"/>
    <trip id="veh196" type="veh_passenger" depart="222.88" departLane="best" departSpeed="max" from="8646992" to="8646992"/>
    <trip id="veh197" type="veh_passenger" depart="224.01" departLane="best" from="-113214547#5" to="-113214547#5"/>
    <trip id="veh202" type="veh_passenger" depart="229.70" departLane="best" from="8642174#1" to="8642174#1"/>
    <trip id="veh216" type="veh_passenger" depart="245.62" departLane="best" from="8644084#4" to="8644084#4"/>
    <trip id="veh235" type="veh_passenger" depart="267.22" departLane="best" departSpeed="max" from="-8644084#1" to="-8644084#1"/>
    <trip id="veh243" type="veh_passenger" depart="276.32" departLane="best" from="8643878#1" to="8643878#1"/>
    <trip id="veh244" type="veh_passenger" depart="277.46" departLane="best" from="8642195#0" to="8642195#0"/>
    <trip id="veh246" type="veh_passenger" depart="279.73" departLane="best" from="-113214547#14" to="-113214547#14"/>
    <trip id="veh250" type="veh_passenger" depart="284.28" departLane="best" from="-8647040" to="-8647040"/>
    <trip id="veh255" type="veh_passenger" depart="289.97" departLane="best" from="-8644084#7" to="-8644084#7"/>
    <trip id="veh257" type="veh_passenger" depart="292.24" departLane="best" departSpeed="max" from="8646992" to="8646992"/>
    <trip id="veh268" type="veh_passenger" depart="304.75" departLane="best" from="296966997#1" to="296966997#1"/>
    <trip id="veh289" type="veh_passenger" depart="328.63" departLane="best" from="-426452562#3" to="-426452562#3"/>
    <trip id="veh297" type="veh_passenger" depart="337.73" departLane="best" from="8642174#0" to="8642174#0"/>
    <trip id="veh315" type="veh_passenger" depart="358.19" departLane="best" departSpeed="max" from="8644084#0" to="8644084#0"/>
    <trip id="veh323" type="veh_passenger" depart="367.29" departLane="best" from="-8642195#3" to="-8642195#3"/>
    <trip id="veh333" type="veh_passenger" depart="378.66" departLane="best" from="8650477#1" to="8650477#1"/>
    <trip id="veh334" type="veh_passenger" depart="379.80" departLane="best" departSpeed="max" from="8647171#0" to="8647171#0"/>
    <trip id="veh335" type="veh_passenger" depart="380.94" departLane="best" from="-8644084#1" to="-8644084#1"/>
    <trip id="veh348" type="veh_passenger" depart="395.72" departLane="best" from="8650477#1" to="8650477#1"/>
    <trip id="veh351" type="veh_passenger" depart="399.13" departLane="best" from="113214547#6" to="113214547#6"/>
    <trip id="veh362" type="veh_passenger" depart="411.64" departLane="best" from="-8643843#8" to="-8647171#2"/>
    <trip id="veh368" type="veh_passenger" depart="418.46" departLane="best" from="-426452558#1" to="-426452558#1"/>
    <trip id="veh394" type="veh_passenger" depart="448.03" departLane="best" from="426452562#0" to="426452562#0"/>
    <trip id="veh409" type="veh_passenger" depart="465.08" departLane="best" departSpeed="max" from="29018127#0" to="29018127#0"/>
    <trip id="veh423" type="veh_passenger" depart="481.00" departLane="best" from="8649874#2" to="8649874#2"/>
    <trip id="veh426" type="veh_passenger" depart="484.41" departLane="best" from="28640407#2" to="28640407#2"/>
    <trip id="veh427" type="veh_passenger" depart="485.55" departLane="best" departSpeed="max" from="8648471#2" to="8648471#2"/>
    <trip id="veh440" type="veh_passenger" depart="500.33" departLane="best" from="633109347#3" to="633109347#3"/>
    <trip id="veh442" type="veh_passenger" depart="502.61" departLane="best" from="533608798#1" to="533608798#1"/>
    <trip id="veh467" type="veh_passenger" depart="531.04" departLane="best" departSpeed="max" from="8650477#3" to="8650477#3"/>
    <trip id="veh472" type="veh_passenger" depart="536.72" departLane="best" from="8644416#5" to="8644416#5"/>
    <trip id="veh474" type="veh_passenger" depart="539.00" departLane="best" from="8640800" to="8640800"/>
    <trip id="veh482" type="veh_passenger" depart="548.09" departLane="best" departSpeed="max" from="217381795#2" to="217381795#2"/>
    <trip id="veh485" type="veh_passenger" depart="551.50" departLane="best" from="633109347#4" to="633109347#4"/>
    <trip id="veh486" type="veh_passenger" depart="552.64" departLane="best" departSpeed="max" from="-113214547#14" to="-113214547#14"/>
    <trip id="veh491" type="veh_passenger" depart="558.33" departLane="best" from="113214547#10" to="113214547#10"/>
    <trip id="veh499" type="veh_passenger" depart="567.42" departLane="best" from="8640650" to="8640650"/>
    <trip id="veh525" type="veh_passenger" depart="596.99" departLane="best" departSpeed="max" from="-426452558#1" to="-426452558#1"/>
    <trip id="veh531" type="veh_passenger" depart="603.81" departLane="best" from="8642174#0" to="8642174#0"/>
    <trip id="veh536" type="veh_passenger" depart="609.50" departLane="best" from="8648471#2" to="8648471#2"/>
    <trip id="veh539" type="veh_passenger" depart="612.91" departLane="best" from="8647749#1" to="8647749#1"/>
    <trip id="veh540" type="veh_passenger" depart="614.05" departLane="best" departSpeed="max" from="8646992" to="8646992"/>
    <trip id="veh543" type="veh_passenger" depart="617.46" departLane="best" from="-8645994#3" to="-8645994#3"/>
    <trip id="veh560" type="veh_passenger" depart="636.79" departLane="best" from="633109347#4" to="633109347#4"/>
    <trip id="veh569" type="veh_passenger" depart="647.02" departLane="best" from="8647261#1" to="8647261#1"/>
    <trip id="veh575" type="veh_passenger" depart="653.85" departLane="best" departSpeed="max" from="-113214547#13" to="-113214547#13"/>
    <trip id="veh579" type="veh_passenger" depart="658.39" departLane="best" from="8647679" to="8647679"/>
    <trip id="veh581" type="veh_passenger" depart="660.67" departLane="best" from="113214547#5" to="113214547#5"/>
    <trip id="veh588" type="veh_passenger" depart="668.63" departLane="best" from="8645559" to="8645559"/>
    <trip id="veh602" type="veh_passenger" depart="684.55" departLane="best" departSpeed="max" from="591235996#1" to="591235996#1"/>
    <trip id="veh608" type="veh_passenger" depart="691.37" departLane="best" departSpeed="max" from="-8640496" to="-8640496"/>
    <trip id="veh609" type="veh_passenger" depart="692.51" departLane="best" from="-435486112" to="-435486112"/>
    <trip id="veh618" type="veh_passenger" depart="702.74" departLane="best" departSpeed="max" from="-426452562#3" to="-426452562#3"/>
    <trip id="veh619" type="veh_passenger" depart="703.88" departLane="best" from="633109347#4" to="633109347#4"/>
    <trip id="veh621" type="veh_passenger" depart="706.15" departLane="best" from="8649697" to="8649697"/>
    <trip id="veh628" type="veh_passenger" depart="714.11" departLane="best" from="8647171#4" to="8647171#4"/>
    <trip id="veh639" type="veh_passenger" depart="726.62" departLane="best" from="8644084#6" to="8644084#6"/>
    <trip id="veh640" type="veh_passenger" depart="727.76" departLane="best" from="-8643878#3" to="-8643878#3"/>
    <trip id="veh641" type="veh_passenger" depart="728.90" departLane="best" from="-8644084#3" to="-8644084#3"/>
    <trip id="veh643" type="veh_passenger" depart="731.17" departLane="best" from="633109347#1" to="633109347#1"/>
    <trip id="veh647" type="veh_passenger" depart="735.72" departLane="best" departSpeed="max" from="296966997#0" to="296966997#0"/>
    <trip id="veh654" type="veh_passenger" depart="743.68" departLane="best" departSpeed="max" from="633109347#3" to="633109347#3"/>
    <trip id="veh663" type="veh_passenger" depart="753.91" departLane="best" from="426452562#0" to="426452562#0"/>
    <trip id="veh682" type="veh_passenger" depart="775.52" departLane="best" from="591235996#0" to="591235996#0"/>
    <trip id="veh688" type="veh_passenger" depart="782.34" departLane="best" departSpeed="max" from="296966997#3" to="296966997#3"/>
    <trip id="veh699" type="veh_passenger" depart="794.85" departLane="best" from="28640407#2" to="28640407#2"/>
    <trip id="veh700" type="veh_passenger" depart="795.99" departLane="best" from="-8647040" to="-8647040"/>
    <trip id="veh708" type="veh_passenger" depart="805.08" departLane="best" departSpeed="max" from="8644416#6" to="8644416#6"/>
    <trip id="veh741" type="veh_passenger" depart="842.61" departLane="best" from="8647749#2" to="8647749#2"/>
    <trip id="veh747" type="veh_passenger" depart="849.43" departLane="best" from="-8647171#0" to="-8647171#0"/>
    <trip id="veh750" type="veh_passenger" depart="852.84" departLane="best" from="8647171#2" to="8647171#2"/>
    <trip id="veh756" type="veh_passenger" depart="859.66" departLane="best" from="633109348" to="633109348"/>
    <trip id="veh758" type="veh_passenger" depart="861.94" departLane="best" from="113214547#10" to="113214547#10"/>
    <trip id="veh759" type="veh_passenger" depart="863.08" departLane="best" from="633109347#1" to="633109347#1"/>
    <trip id="veh761" type="veh_passenger" depart="865.35" departLane="best" from="217381795#4" to="217381795#4"/>
    <trip id="veh763" type="veh_passenger" depart="867.62" departLane="best" from="8640523" to="8640523"/>
    <trip id="veh773" type="veh_passenger" depart="879.00" departLane="best" departSpeed="max" from="8647749#0" to="8647749#0"/>
    <trip id="veh791" type="veh_passenger" depart="899.46" departLane="best" departSpeed="max" from="591235996#1" to="591235996#1"/>
    <trip id="veh793" type="veh_passenger" depart="901.74" departLane="best" from="-8642174#1" to="-8642174#1"/>
    <trip id="veh794" type="veh_passenger" depart="902.87" departLane="best" from="435486112" to="435486112"/>
    <trip id="veh805" type="veh_passenger" depart="915.38" departLane="best" from="-8646992" to="-8646992"/>
    <trip id="veh815" type="veh_passenger" depart="926.75" departLane="best" from="113214547#5" to="113214547#5"/>
    <trip id="veh822" type="veh_passenger" depart="934.71" departLane="best" from="8640496" to="8640496"/>
    <trip id="veh825" type="veh_passenger" depart="938.13" departLane="best" departSpeed="max" from="8642174#1" to="8642174#1"/>
    <trip id="veh829" type="veh_passenger" depart="942.67" departLane="best" from="435486112" to="435486112"/>
    <trip id="veh830" type="veh_passenger" depart="943.81" departLane="best" departSpeed="max" from="-8644416#3" to="-8644416#3"/>
    <trip id="veh835" type="veh_passenger" depart="949.50" departLane="best" from="-113214547#12" to="-113214547#12"/>
    <trip id="veh836" type="veh_passenger" depart="950.63" departLane="best" departSpeed="max" from="-8640496" to="-8640496"/>
    <trip id="veh845" type="veh_passenger" depart="960.87" departLane="best" from="8644416#6" to="8644416#6"/>
    <trip id="veh854" type="veh_passenger" depart="971.10" departLane="best" departSpeed="max" from="-633109348" to="-633109348"/>
    <trip id="veh855" type="veh_passenger" depart="972.24" departLane="best" from="633109347#1" to="633109347#1"/>
    <trip id="veh861" type="veh_passenger" depart="979.06" departLane="best" from="-8647171#0" to="-8647171#0"/>
    <trip id="veh868" type="veh_passenger" depart="987.02" departLane="best" from="8644416#2" to="8644416#2"/>
    <trip id="veh886" type="veh_passenger" depart="1007.49" departLane="best" from="8651204" to="8651204"/>
    <trip id="veh888" type="veh_passenger" depart="1009.76" departLane="best" from="-8643878#3" to="-8643878#3"/>
    <trip id="veh890" type="veh_passenger" depart="1012.04" departLane="best" from="8644084#3" to="8644084#3"/>
    <trip id="veh894" type="veh_passenger" depart="1016.59" departLane="best" departSpeed="max" from="8647171#0" to="8647171#0"/>
    <trip id="veh904" type="veh_passenger" depart="1027.96" departLane="best" departSpeed="max" from="426452562#2" to="426452562#2"/>
    <trip id="veh906" type="veh_passenger" depart="1030.23" departLane="best" from="8650477#1" to="8650477#1"/>
    <trip id="veh918" type="veh_passenger" depart="1043.88" departLane="best" from="296966997#1" to="296966997#1"/>
    <trip id="veh921" type="veh_passenger" depart="1047.29" departLane="best" from="-8647026#1" to="-8647026#1"/>
    <trip id="veh934" type="veh_passenger" depart="1062.07" departLane="best" from="8644084#4" to="8644084#4"/>
    <trip id="veh940" type="veh_passenger" depart="1068.89" departLane="best" from="591235996#1" to="591235996#1"/>
    <trip id="veh944" type="veh_passenger" depart="1073.44" departLane="best" from="-113214547#5" to="-113214547#5"/>
    <trip id="veh947" type="veh_passenger" depart="1076.85" departLane="best" from="8651204" to="8651204"/>
    <trip id="veh950" type="veh_passenger" depart="1080.27" departLane="best" from="8644084#5" to="8644084#5"/>
    <trip id="veh973" type="veh_passenger" depart="1106.42" departLane="best" from="8640496" to="8640496"/>
    <trip id="veh976" type="veh_passenger" depart="1109.83" departLane="best" departSpeed="max" from="-8647171#2" to="-8647171#2"/>
    <trip id="veh978" type="veh_passenger" depart="1112.11" departLane="best" from="8647749#7" to="8647749#7"/>
    <trip id="veh984" type="veh_passenger" depart="1118.93" departLane="best" from="8649455#3" to="8649455#3"/>
    <trip id="veh986" type="veh_passenger" depart="1121.20" departLane="best" from="8651204" to="8651204"/>
    <trip id="veh1010" type="veh_passenger" depart="1148.49" departLane="best" from="633109347#4" to="633109347#4"/>
    <trip id="veh1012" type="veh_passenger" depart="1150.77" departLane="best" from="8647749#6" to="8647749#6"/>
    <trip id="veh1031" type="veh_passenger" depart="1172.37" departLane="best" from="591235996#1" to="591235996#1"/>
    <trip id="veh1034" type="veh_passenger" depart="1175.78" departLane="best" from="-8644416#3" to="-8644416#3"/>
    <trip id="veh1046" type="veh_passenger" depart="1189.43" departLane="best" from="217381795#3" to="217381795#3"/>
    <trip id="veh1047" type="veh_passenger" depart="1190.57" departLane="best" from="-8643878#3" to="-8643878#3"/>
    <trip id="veh1049" type="veh_passenger" depart="1192.84" departLane="best" from="8650106" to="8650106"/>
    <trip id="veh1062" type="veh_passenger" depart="1207.62" departLane="best" departSpeed="max" from="8646062" to="8646062"/>
    <trip id="veh1072" type="veh_passenger" depart="1218.99" departLane="best" from="-426452562#3" to="-426452562#3"/>
    <trip id="veh1083" type="veh_passenger" depart="1231.50" departLane="best" departSpeed="max" from="-8646992" to="-8646992"/>
    <trip id="veh1085" type="veh_passenger" depart="1233.78" departLane="best" from="8651778" to="-113214547#3"/>
    <trip id="veh1086" type="veh_passenger" depart="1234.91" departLane="best" from="8647171#3" to="8647171#3"/>
    <trip id="veh1098" type="veh_passenger" depart="1248.56" departLane="best" departSpeed="max" from="435330255" to="435330255"/>
    <trip id="veh1102" type="veh_passenger" depart="1253.11" departLane="best" departSpeed="max" from="8646992" to="8646992"/>
    <trip id="veh1134" type="veh_passenger" depart="1289.50" departLane="best" from="633109347#2" to="-8644084#0"/>
    <trip id="veh1136" type="veh_passenger" depart="1291.77" departLane="best" departSpeed="max" from="-8643843#1" to="-8643843#1"/>
    <trip id="veh1139" type="veh_passenger" depart="1295.18" departLane="best" departSpeed="max" from="633109347#2" to="633109347#2"/>
    <trip id="veh1140" type="veh_passenger" depart="1296.32" departLane="best" from="217381795#3" to="217381795#3"/>
    <trip id="veh1144" type="veh_passenger" depart="1300.87" departLane="best" from="8642195#2" to="8642195#2"/>
    <trip id="veh1145" type="veh_passenger" depart="1302.00" departLane="best" from="-435486112" to="-435486112"/>
    <trip id="veh1149" type="veh_passenger" depart="1306.55" departLane="best" from="633109347#0" to="633109347#0"/>
    <trip id="veh1152" type="veh_passenger" depart="1309.96" departLane="best" from="8647749#2" to="8647749#2"/>
    <trip id="veh1154" type="veh_passenger" depart="1312.24" departLane="best" departSpeed="max" from="591235996#0" to="591235996#0"/>
    <trip id="veh1160" type="veh_passenger" depart="1319.06" departLane="best" from="-8645994#3" to="-8645994#3"/>
    <trip id="veh1166" type="veh_passenger" depart="1325.88" departLane="best" from="296966997#1" to="296966997#1"/>
    <trip id="veh1170" type="veh_passenger" depart="1330.43" departLane="best" from="8643878#0" to="8643878#0"/>
    <trip id="veh1173" type="veh_passenger" depart="1333.84" departLane="best" from="8640800" to="8640800"/>
    <trip id="veh1178" type="veh_passenger" depart="1339.53" departLane="best" from="435330256#2" to="435330256#2"/>
    <trip id="veh1185" type="veh_passenger" depart="1347.49" departLane="best" departSpeed="max" from="8647261#2" to="8647261#2"/>
    <trip id="veh1188" type="veh_passenger" depart="1350.90" departLane="best" from="-8644084#1" to="-8644084#1"/>
    <trip id="veh1201" type="veh_passenger" depart="1365.68" departLane="best" from="8643878#1" to="8643878#1"/>
    <trip id="veh1205" type="veh_passenger" depart="1370.23" departLane="best" from="-426452558#1" to="-426452558#1"/>
    <trip id="veh1223" type="veh_passenger" depart="1390.70" departLane="best" from="-8647171#1" to="-8647171#1"/>
    <trip id="veh1229" type="veh_passenger" depart="1397.52" departLane="best" from="-8643878#5" to="-8643878#5"/>
    <trip id="veh1231" type="veh_passenger" depart="1399.80" departLane="best" from="-8648471#1" to="-8648471#1"/>
    <trip id="veh1246" type="veh_passenger" depart="1416.85" departLane="best" departSpeed="max" from="-8640496" to="-8640496"/>
    <trip id="veh1249" type="veh_passenger" depart="1420.27" departLane="best" from="8642195#3" to="8642195#3"/>
    <trip id="veh1266" type="veh_passenger" depart="1439.60" departLane="best" from="8643878#5" to="8643878#5"/>
    <trip id="veh1271" type="veh_passenger" depart="1445.28" departLane="best" from="533608798#1" to="533608798#1"/>
    <trip id="veh1272" type="veh_passenger" depart="1446.42" departLane="best" from="8640002#2" to="8640002#2"/>
    <trip id="veh1281" type="veh_passenger" depart="1456.65" departLane="best" from="8647749#5" to="8647749#5"/>
    <trip id="veh1285" type="veh_passenger" depart="1461.20" departLane="best" from="8636670" to="8640002#1"/>
    <trip id="veh1286" type="veh_passenger" depart="1462.34" departLane="best" from="-8643878#0" to="-8643878#0"/>
    <trip id="veh1288" type="veh_passenger" depart="1464.61" departLane="best" from="-8644084#7" to="-8644084#7"/>
    <trip id="veh1291" type="veh_passenger" depart="1468.02" departLane="best" from="8644416#4" to="8644416#4"/>
    <trip id="veh1309" type="veh_passenger" depart="1488.49" departLane="best" departSpeed="max" from="426452562#0" to="426452562#0"/>
    <trip id="veh1310" type="veh_passenger" depart="1489.63" departLane="best" from="8649874#4" to="8649874#4"/>
    <trip id="veh1314" type="veh_passenger" depart="1494.18" departLane="best" from="8647749#0" to="8647749#0"/>
    <trip id="veh1321" type="veh_passenger" depart="1502.14" departLane="best" from="8643851" to="8643851"/>
    <trip id="veh1331" type="veh_passenger" depart="1513.51" departLane="best" from="-426452562#3" to="-426452562#3"/>
    <trip id="veh1344" type="veh_passenger" depart="1528.29" departLane="best" departSpeed="max" from="-8642174#1" to="-8642174#1"/>
    <trip id="veh1345" type="veh_passenger" depart="1529.43" departLane="best" from="-8643878#1" to="-8643878#1"/>
    <trip id="veh1347" type="veh_passenger" depart="1531.70" departLane="best" from="-8647261#1" to="-8647261#1"/>
    <trip id="veh1350" type="veh_passenger" depart="1535.11" departLane="best" from="8647749#4" to="8647749#4"/>
    <trip id="veh1352" type="veh_passenger" depart="1537.39" departLane="best" from="113214547#0" to="113214547#0"/>
    <trip id="veh1355" type="veh_passenger" depart="1540.80" departLane="best" from="633109347#2" to="633109347#2"/>
    <trip id="veh1359" type="veh_passenger" depart="1545.35" departLane="best" from="8647171#3" to="8647171#3"/>
    <trip id="veh1377" type="veh_passenger" depart="1565.82" departLane="best" from="8649874#0" to="8649874#0"/>
    <trip id="veh1388" type="veh_passenger" depart="1578.33" departLane="best" from="8644084#7" to="8644084#7"/>
    <trip id="veh1394" type="veh_passenger" depart="1585.15" departLane="best" departSpeed="max" from="8646062" to="8646062"/>
    <trip id="veh1395" type="veh_passenger" depart="1586.28" departLane="best" from="8648471#2" to="8648471#2"/>
    <trip id="veh1409" type="veh_passenger" depart="1602.20" departLane="best" from="-113214547#3" to="-113214547#3"/>
    <trip id="veh1410" type="veh_passenger" depart="1603.34" departLane="best" from="8650477#3" to="8650477#3"/>
    <trip id="veh1411" type="veh_passenger" depart="1604.48" departLane="best" from="8647749#5" to="8647749#5"/>
    <trip id="veh1424" type="veh_passenger" depart="1619.26" departLane="best" from="8651778" to="8651778"/>
    <trip id="veh1432" type="veh_passenger" depart="1628.36" departLane="best" from="8640523" to="8640523"/>
    <trip id="veh1439" type="veh_passenger" depart="1636.32" departLane="best" departSpeed="max" from="8649438" to="8649438"/>
    <trip id="veh1440" type="veh_passenger" depart="1637.46" departLane="best" from="435330256#1" to="435330256#1"/>
    <trip id="veh1442" type="veh_passenger" depart="1639.73" departLane="best" from="8648471#0" to="8648471#0"/>
    <trip id="veh1443" type="veh_passenger" depart="1640.87" departLane="best" departSpeed="max" from="-8643878#4" to="-8643878#4"/>
    <trip id="veh1449" type="veh_passenger" depart="1647.69" departLane="best" from="-426452558#1" to="-426452558#1"/>
    <trip id="veh1452" type="veh_passenger" depart="1651.10" departLane="best" departSpeed="max" from="-8644084#1" to="-8644084#1"/>
    <trip id="veh1460" type="veh_passenger" depart="1660.20" departLane="best" departSpeed="max" from="-8640523" to="-8640523"/>
    <trip id="veh1464" type="veh_passenger" depart="1664.75" departLane="best" from="-8644416#2" to="-8644416#2"/>
    <trip id="veh1466" type="veh_passenger" depart="1667.02" departLane="best" from="217381795#0" to="217381795#0"/>
    <trip id="veh1469" type="veh_passenger" depart="1670.43" departLane="best" departSpeed="max" from="8649874#2" to="8649874#2"/>
    <trip id="veh1475" type="veh_passenger" depart="1677.25" departLane="best" from="113214547#0" to="113214547#0"/>
    <trip id="veh1478" type="veh_passenger" depart="1680.67" departLane="best" departSpeed="max" from="8646992" to="8646992"/>
    <trip id="veh1483" type="veh_passenger" depart="1686.35" departLane="best" departSpeed="max" from="8646116" to="8646116"/>
    <trip id="veh1493" type="veh_passenger" depart="1697.72" departLane="best" from="217381795#0" to="217381795#0"/>
    <trip id="veh1502" type="veh_passenger" depart="1707.96" departLane="best" from="113214547#0" to="113214547#0"/>
    <trip id="veh1510" type="veh_passenger" depart="1717.05" departLane="best" from="-113214547#11" to="-113214547#11"/>
    <trip id="veh1515" type="veh_passenger" depart="1722.74" departLane="best" departSpeed="max" from="8647171#0" to="8647171#0"/>
    <trip id="veh1519" type="veh_passenger" depart="1727.29" departLane="best" from="8643843#2" to="8643843#2"/>
    <trip id="veh1521" type="veh_passenger" depart="1729.56" departLane="best" from="-8642174#0" to="-8642174#0"/>
    <trip id="veh1529" type="veh_passenger" depart="1738.66" departLane="best" from="296966997#0" to="296966997#0"/>
    <trip id="veh1533" type="veh_passenger" depart="1743.21" departLane="best" from="-8643843#8" to="-8643843#8"/>
    <trip id="veh1536" type="veh_passenger" depart="1746.62" departLane="best" from="-8643843#3" to="-8643843#3"/>
    <trip id="veh1541" type="veh_passenger" depart="1752.30" departLane="best" from="8650289" to="8650289"/>
    <trip id="veh1548" type="veh_passenger" depart="1760.26" departLane="best" from="633109347#2" to="633109347#2"/>
    <trip id="veh1563" type="veh_passenger" depart="1777.32" departLane="best" departSpeed="max" from="8640496" to="8640496"/>
    <trip id="veh1567" type="veh_passenger" depart="1781.87" departLane="best" from="8648471#2" to="8648471#2"/>
    <trip id="veh1582" type="veh_passenger" depart="1798.93" departLane="best" from="-8647040" to="-8647040"/>
    <trip id="veh1589" type="veh_passenger" depart="1806.89" departLane="best" from="-8644416#0" to="-8644416#0"/>
    <trip id="veh1591" type="veh_passenger" depart="1809.16" departLane="best" departSpeed="max" from="591235996#0" to="591235996#0"/>
    <trip id="veh1594" type="veh_passenger" depart="1812.57" departLane="best" from="-8647040" to="-8647040"/>
    <trip id="veh1601" type="veh_passenger" depart="1820.53" departLane="best" from="-8644084#7" to="-8644084#7"/>
    <trip id="veh1611" type="veh_passenger" depart="1831.90" departLane="best" from="-8644416#1" to="-8644416#1"/>
    <trip id="veh1616" type="veh_passenger" depart="1837.59" departLane="best" from="591235996#1" to="-113214547#1"/>
    <trip id="veh1626" type="veh_passenger" depart="1848.96" departLane="best" from="-8647040" to="-8647040"/>
    <trip id="veh1630" type="veh_passenger" depart="1853.51" departLane="best" from="-8647261#1" to="-8647261#1"/>
    <trip id="veh1644" type="veh_passenger" depart="1869.43" departLane="best" from="-8644416#3" to="-8644416#3"/>