<?xml version="1.0" encoding="UTF-8"?>

<!-- generated on 2024-07-25 16:30:19 by Eclipse SUMO netedit Version v1_15_0+0596-65718631903
<configuration xmlns:xsi="http://www.w3.org/2001/XMLSchema-instance" xsi:noNamespaceSchemaLocation="http://sumo.dlr.de/xsd/netconvertConfiguration.xsd">

    <input>
        <sumo-net-file value="./osm.net.xml"/>
    </input>

    <output>
        <output-file value="./osm.net.xml"/>
        <output.street-names value="true"/>
    </output>

    <processing>
        <geometry.min-radius.fix.railways value="false"/>
        <geometry.max-grade.fix value="false"/>
        <offset.disable-normalization value="true"/>
        <lefthand value="0"/>
    </processing>

    <junctions>
        <no-turnarounds value="true"/>
        <junctions.corner-detail value="5"/>
        <junctions.limit-turn-speed value="5.50"/>
        <rectangular-lane-cut value="0"/>
    </junctions>

    <pedestrian>
        <walkingareas value="0"/>
    </pedestrian>

</configuration>
-->

<net version="1.9" junctionCornerDetail="5" limitTurnSpeed="5.50" xmlns:xsi="http://www.w3.org/2001/XMLSchema-instance" xsi:noNamespaceSchemaLocation="http://sumo.dlr.de/xsd/net_file.xsd">

    <location netOffset="-330802.31,-4690370.26" convBoundary="8.49,1.62,1393.04,908.57" origBoundary="-71.054378,42.347408,-71.037299,42.355246" projParameter="+proj=utm +zone=19 +ellps=WGS84 +datum=WGS84 +units=m +no_defs"/>

    <type id="highway.living_street" priority="2" numLanes="1" speed="2.78" disallow="tram rail_urban rail rail_electric rail_fast ship" oneway="0"/>
    <type id="highway.primary" priority="12" numLanes="2" speed="27.78" disallow="tram rail_urban rail rail_electric rail_fast ship" oneway="0"/>
    <type id="highway.residential" priority="3" numLanes="1" speed="13.89" disallow="tram rail_urban rail rail_electric rail_fast ship" oneway="0"/>
    <type id="highway.secondary" priority="11" numLanes="1" speed="27.78" disallow="tram rail_urban rail rail_electric rail_fast ship" oneway="0"/>
    <type id="highway.secondary_link" priority="6" numLanes="1" speed="22.22" disallow="tram rail_urban rail rail_electric rail_fast ship" oneway="0"/>
    <type id="highway.tertiary" priority="10" numLanes="1" speed="22.22" disallow="tram rail_urban rail rail_electric rail_fast ship" oneway="0"/>

    <edge id=":10248358861_0" function="internal">
        <lane id=":10248358861_0_0" index="0" disallow="tram rail_urban rail rail_electric rail_fast ship" speed="11.18" length="8.15" width="6.10" shape="472.85,667.80 470.99,669.35 469.99,670.75 468.99,672.15 467.13,673.69"/>
        <lane id=":10248358861_0_1" index="1" disallow="tram rail_urban rail rail_electric rail_fast ship" speed="11.18" length="8.15" width="6.10" shape="470.19,663.71 463.81,668.58"/>
    </edge>
    <edge id=":10248358861_2" function="internal">
        <lane id=":10248358861_2_0" index="0" disallow="tram rail_urban rail rail_electric rail_fast ship" speed="11.18" length="8.71" width="4.88" shape="457.18,658.34 458.98,656.60 459.70,654.88 460.43,653.16 462.22,651.43"/>
        <lane id=":10248358861_2_1" index="1" disallow="tram rail_urban rail rail_electric rail_fast ship" speed="11.18" length="8.71" width="4.88" shape="460.49,663.46 462.25,661.52 462.69,659.49 463.13,657.46 464.88,655.52"/>
        <lane id=":10248358861_2_2" index="2" disallow="tram rail_urban rail rail_electric rail_fast ship" speed="11.18" length="8.71" width="4.88" shape="460.49,663.46 467.54,659.62"/>
    </edge>
    <edge id=":10542823354_0" function="internal">
        <lane id=":10542823354_0_0" index="0" disallow="tram rail_urban rail rail_electric rail_fast ship" speed="22.22" length="8.36" width="5.07" shape="823.85,351.61 825.49,353.49 827.08,354.39 828.64,355.30 830.17,357.25"/>
        <lane id=":10542823354_0_1" index="1" disallow="tram rail_urban rail rail_electric rail_fast ship" speed="22.22" length="8.36" width="5.07" shape="819.70,354.18 821.27,356.00 822.78,356.89 824.26,357.79 825.72,359.67"/>
        <lane id=":10542823354_0_2" index="2" disallow="tram rail_urban rail rail_electric rail_fast ship" speed="22.22" length="8.36" width="5.07" shape="819.70,354.18 820.57,356.37 820.56,358.10 820.50,359.85 821.26,362.10"/>
    </edge>
    <edge id=":10850346914_0" function="internal">
        <lane id=":10850346914_0_0" index="0" disallow="tram rail_urban rail rail_electric rail_fast ship" speed="11.18" length="8.56" width="6.00" shape="773.68,470.60 772.08,472.31 771.64,474.07 771.23,475.88 769.73,477.73"/>
        <lane id=":10850346914_0_1" index="1" disallow="tram rail_urban rail rail_electric rail_fast ship" speed="11.18" length="8.56" width="6.00" shape="770.93,466.42 769.18,468.05 768.42,469.61 767.70,471.22 766.05,472.99"/>
        <lane id=":10850346914_0_2" index="2" disallow="tram rail_urban rail rail_electric rail_fast ship" speed="11.18" length="8.56" width="6.00" shape="770.93,466.42 768.53,467.35 766.57,467.24 764.65,467.17 762.37,468.26"/>
    </edge>
    <edge id=":1293735420_0" function="internal">
        <lane id=":1293735420_0_0" index="0" disallow="tram rail_urban rail rail_electric rail_fast ship" speed="6.56" length="9.13" shape="1295.66,78.80 1294.09,76.87 1292.27,75.90 1290.20,75.89 1287.88,76.84"/>
    </edge>
    <edge id=":1293735420_1" function="internal">
        <lane id=":1293735420_1_0" index="0" disallow="tram rail_urban rail rail_electric rail_fast ship" speed="11.18" length="14.44" shape="1295.66,78.80 1288.21,66.43"/>
    </edge>
    <edge id=":1293735420_2" function="internal">
        <lane id=":1293735420_2_0" index="0" disallow="tram rail_urban rail rail_electric rail_fast ship" speed="7.30" length="7.41" shape="1295.66,78.80 1293.98,75.31 1293.47,72.42 1293.64,71.84"/>
    </edge>
    <edge id=":1293735420_9" function="internal">
        <lane id=":1293735420_9_0" index="0" disallow="tram rail_urban rail rail_electric rail_fast ship" speed="7.30" length="4.34" shape="1293.64,71.84 1294.15,70.11 1296.01,68.39"/>
    </edge>
    <edge id=":1293735420_3" function="internal">
        <lane id=":1293735420_3_0" index="0" disallow="tram rail_urban rail rail_electric rail_fast ship" speed="11.18" length="11.28" shape="1297.62,71.15 1287.88,76.84"/>
    </edge>
    <edge id=":1293735420_4" function="internal">
        <lane id=":1293735420_4_0" index="0" disallow="tram rail_urban rail rail_electric rail_fast ship" speed="7.39" length="11.81" shape="1297.62,71.15 1295.21,71.92 1292.84,71.39 1290.50,69.56 1288.21,66.43"/>
    </edge>
    <edge id=":1293735420_5" function="internal">
        <lane id=":1293735420_5_0" index="0" disallow="tram rail_urban rail rail_electric rail_fast ship" speed="3.65" length="4.67" shape="1297.62,71.15 1296.18,71.06 1295.43,70.57 1295.37,69.68 1296.01,68.39"/>
    </edge>
    <edge id=":1293735420_6" function="internal">
        <lane id=":1293735420_6_0" index="0" disallow="tram rail_urban rail rail_electric rail_fast ship" speed="6.48" length="9.03" shape="1286.26,74.08 1288.20,72.54 1289.17,70.75 1289.17,68.71 1288.21,66.43"/>
    </edge>
    <edge id=":1293735420_7" function="internal">
        <lane id=":1293735420_7_0" index="0" disallow="tram rail_urban rail rail_electric rail_fast ship" speed="11.18" length="11.29" shape="1286.26,74.08 1296.01,68.39"/>
    </edge>
    <edge id=":1293735420_8" function="internal">
        <lane id=":1293735420_8_0" index="0" disallow="tram rail_urban rail rail_electric rail_fast ship" speed="3.65" length="1.44" shape="1286.26,74.08 1287.70,74.16"/>
    </edge>
    <edge id=":1293735420_10" function="internal">
        <lane id=":1293735420_10_0" index="0" disallow="tram rail_urban rail rail_electric rail_fast ship" speed="3.65" length="3.23" shape="1287.70,74.16 1288.45,74.65 1288.51,75.55 1287.88,76.84"/>
    </edge>
    <edge id=":1293735434_0" function="internal">
        <lane id=":1293735434_0_0" index="0" disallow="tram rail_urban rail rail_electric rail_fast ship" speed="7.71" length="9.19" width="4.88" shape="1265.67,28.25 1264.23,25.61 1262.69,23.75 1261.04,22.65 1259.28,22.33"/>
    </edge>
    <edge id=":1293735434_1" function="internal">
        <lane id=":1293735434_1_0" index="0" disallow="tram rail_urban rail rail_electric rail_fast ship" speed="7.29" length="15.03" width="4.88" shape="1265.67,28.25 1264.06,23.48 1264.20,20.03 1266.07,17.89 1269.67,17.06"/>
    </edge>
    <edge id=":1293735434_2" function="internal">
        <lane id=":1293735434_2_0" index="0" disallow="tram rail_urban rail rail_electric rail_fast ship" speed="27.78" length="10.59" width="4.88" shape="1269.86,21.94 1259.28,22.33"/>
    </edge>
    <edge id=":1293735434_3" function="internal">
        <lane id=":1293735434_3_0" index="0" disallow="tram rail_urban rail rail_electric rail_fast ship" speed="4.51" length="2.64" width="4.88" shape="1269.86,21.94 1267.99,20.79 1267.78,20.40"/>
    </edge>
    <edge id=":1293735434_6" function="internal">
        <lane id=":1293735434_6_0" index="0" disallow="tram rail_urban rail rail_electric rail_fast ship" speed="4.51" length="4.49" width="4.88" shape="1267.78,20.40 1267.33,19.59 1267.89,18.35 1269.67,17.06"/>
    </edge>
    <edge id=":1293735434_4" function="internal">
        <lane id=":1293735434_4_0" index="0" disallow="tram rail_urban rail rail_electric rail_fast ship" speed="27.78" length="10.57" width="4.88" shape="1259.11,17.45 1269.67,17.06"/>
    </edge>
    <edge id=":1293735434_5" function="internal">
        <lane id=":1293735434_5_0" index="0" disallow="tram rail_urban rail rail_electric rail_fast ship" speed="4.51" length="2.63" width="4.88" shape="1259.11,17.45 1260.98,18.61 1261.19,18.99"/>
    </edge>
    <edge id=":1293735434_7" function="internal">
        <lane id=":1293735434_7_0" index="0" disallow="tram rail_urban rail rail_electric rail_fast ship" speed="4.51" length="4.49" width="4.88" shape="1261.19,18.99 1261.64,19.81 1261.07,21.05 1259.28,22.33"/>
    </edge>
    <edge id=":1293735441_0" function="internal">
        <lane id=":1293735441_0_0" index="0" disallow="tram rail_urban rail rail_electric rail_fast ship" speed="11.18" length="11.25" width="4.88" shape="1328.95,123.46 1319.25,129.18"/>
        <lane id=":1293735441_0_1" index="1" disallow="tram rail_urban rail rail_electric rail_fast ship" speed="11.18" length="11.25" width="4.88" shape="1326.47,119.27 1316.78,124.98"/>
    </edge>
    <edge id=":1293735441_2" function="internal">
        <lane id=":1293735441_2_0" index="0" disallow="tram rail_urban rail rail_electric rail_fast ship" speed="9.19" length="18.41" shape="1326.47,119.27 1323.87,119.62 1320.82,117.90 1317.32,114.08 1313.36,108.18"/>
    </edge>
    <edge id=":1293735441_3" function="internal">
        <lane id=":1293735441_3_0" index="0" disallow="tram rail_urban rail rail_electric rail_fast ship" speed="4.51" length="7.13" width="4.88" shape="1326.47,119.27 1324.27,119.15 1323.12,118.41 1323.03,117.05 1323.98,115.07"/>
    </edge>
    <edge id=":1293735441_4" function="internal">
        <lane id=":1293735441_4_0" index="0" disallow="tram rail_urban rail rail_electric rail_fast ship" speed="6.87" length="9.72" shape="1311.84,116.56 1313.75,114.97 1314.64,113.04 1314.51,110.78 1313.36,108.18"/>
    </edge>
    <edge id=":1293735441_5" function="internal">
        <lane id=":1293735441_5_0" index="0" disallow="tram rail_urban rail rail_electric rail_fast ship" speed="11.18" length="11.22" width="4.88" shape="1311.84,116.56 1321.49,110.87"/>
        <lane id=":1293735441_5_1" index="1" disallow="tram rail_urban rail rail_electric rail_fast ship" speed="11.18" length="11.22" width="4.88" shape="1314.31,120.77 1323.98,115.07"/>
    </edge>
    <edge id=":1293735446_0" function="internal">
        <lane id=":1293735446_0_0" index="0" disallow="tram rail_urban rail rail_electric rail_fast ship" speed="7.04" length="8.90" shape="1217.44,109.25 1219.10,110.49 1221.01,110.95 1223.19,110.63 1225.62,109.53"/>
        <lane id=":1293735446_0_1" index="1" disallow="tram rail_urban rail rail_electric rail_fast ship" speed="7.79" length="11.12" shape="1217.44,109.25 1220.04,111.56 1222.54,112.84 1224.93,113.09 1227.23,112.29"/>
    </edge>
    <edge id=":1293735446_2" function="internal">
        <lane id=":1293735446_2_0" index="0" disallow="tram rail_urban rail rail_electric rail_fast ship" speed="27.78" length="12.95" shape="1217.44,109.25 1226.29,118.71"/>
        <lane id=":1293735446_2_1" index="1" disallow="tram rail_urban rail rail_electric rail_fast ship" speed="27.78" length="12.95" shape="1215.11,111.44 1223.95,120.89"/>
    </edge>
    <edge id=":1325873756_0" function="internal">
        <lane id=":1325873756_0_0" index="0" disallow="tram rail_urban rail rail_electric rail_fast ship" speed="27.78" length="8.83" width="11.45" shape="350.55,468.97 348.41,470.32 346.57,470.65 344.71,470.95 342.51,472.23"/>
    </edge>
    <edge id=":1325873756_1" function="internal">
        <lane id=":1325873756_1_0" index="0" disallow="tram rail_urban rail rail_electric rail_fast ship" speed="27.78" length="8.40" width="5.72" shape="335.11,463.49 336.61,461.64 337.09,459.93 337.55,458.20 339.00,456.28"/>
        <lane id=":1325873756_1_1" index="1" disallow="tram rail_urban rail rail_electric rail_fast ship" speed="27.78" length="8.40" width="5.72" shape="335.11,463.49 337.23,462.29 339.02,462.05 340.79,461.78 342.85,460.51"/>
    </edge>
    <edge id=":1326968692_0" function="internal">
        <lane id=":1326968692_0_0" index="0" disallow="tram rail_urban rail rail_electric rail_fast ship" speed="6.79" length="10.22" width="6.00" shape="904.12,502.00 902.22,499.55 900.19,498.24 898.01,498.09 895.69,499.08"/>
    </edge>
    <edge id=":1326968692_1" function="internal">
        <lane id=":1326968692_1_0" index="0" disallow="tram rail_urban rail rail_electric rail_fast ship" speed="18.05" length="25.97" shape="904.12,502.00 891.34,479.39"/>
    </edge>
    <edge id=":1326968692_2" function="internal">
        <lane id=":1326968692_2_0" index="0" disallow="tram rail_urban rail rail_electric rail_fast ship" speed="3.65" length="4.67" shape="904.12,502.00 904.18,500.55 904.66,499.80 905.55,499.73 906.86,500.34"/>
    </edge>
    <edge id=":1326968692_3" function="internal">
        <lane id=":1326968692_3_0" index="0" disallow="tram rail_urban rail rail_electric rail_fast ship" speed="18.05" length="25.83" shape="894.09,477.89 906.86,500.34"/>
    </edge>
    <edge id=":1326968692_4" function="internal">
        <lane id=":1326968692_4_0" index="0" disallow="tram rail_urban rail rail_electric rail_fast ship" speed="10.39" length="23.14" width="6.00" shape="894.09,477.89 897.55,485.35 898.97,491.37 898.35,495.95 895.69,499.08"/>
    </edge>
    <edge id=":1326968692_5" function="internal">
        <lane id=":1326968692_5_0" index="0" disallow="tram rail_urban rail rail_electric rail_fast ship" speed="3.63" length="1.41" shape="894.09,477.89 893.96,479.29"/>
    </edge>
    <edge id=":1326968692_9" function="internal">
        <lane id=":1326968692_9_0" index="0" disallow="tram rail_urban rail rail_electric rail_fast ship" speed="3.63" length="3.16" shape="893.96,479.29 893.46,480.01 892.59,480.04 891.34,479.39"/>
    </edge>
    <edge id=":1326968692_6" function="internal">
        <lane id=":1326968692_6_0" index="0" disallow="tram rail_urban rail rail_electric rail_fast ship" speed="7.63" length="11.09" shape="889.12,489.04 891.31,487.10 892.41,484.84 892.42,482.27 891.34,479.39"/>
    </edge>
    <edge id=":1326968692_7" function="internal">
        <lane id=":1326968692_7_0" index="0" disallow="tram rail_urban rail rail_electric rail_fast ship" speed="9.03" length="3.10" shape="892.40,494.06 895.29,492.92"/>
    </edge>
    <edge id=":1326968692_8" function="internal">
        <lane id=":1326968692_8_0" index="0" disallow="tram rail_urban rail rail_electric rail_fast ship" speed="5.00" length="2.70" width="6.00" shape="892.40,494.06 895.11,494.08"/>
    </edge>
    <edge id=":1326968692_10" function="internal">
        <lane id=":1326968692_10_0" index="0" disallow="tram rail_urban rail rail_electric rail_fast ship" speed="9.03" length="14.84" shape="895.29,492.92 896.17,492.58 899.84,493.13 903.40,495.72 906.86,500.34"/>
    </edge>
    <edge id=":1326968692_11" function="internal">
        <lane id=":1326968692_11_0" index="0" disallow="tram rail_urban rail rail_electric rail_fast ship" speed="5.00" length="6.06" width="6.00" shape="895.11,494.08 896.56,494.93 896.75,496.59 895.69,499.08"/>
    </edge>
    <edge id=":1330264334_0" function="internal">
        <lane id=":1330264334_0_0" index="0" disallow="tram rail_urban rail rail_electric rail_fast ship" speed="6.87" length="10.07" width="4.88" shape="696.35,644.02 694.46,641.88 692.40,640.82 690.16,640.86 687.75,641.98"/>
    </edge>
    <edge id=":1330264334_1" function="internal">
        <lane id=":1330264334_1_0" index="0" disallow="tram rail_urban rail rail_electric rail_fast ship" speed="13.89" length="27.60" width="3.50" shape="696.35,644.02 680.86,621.17"/>
    </edge>
    <edge id=":1330264334_2" function="internal">
        <lane id=":1330264334_2_0" index="0" disallow="tram rail_urban rail rail_electric rail_fast ship" speed="9.60" length="20.86" width="4.88" shape="696.35,644.02 692.88,637.80 691.51,632.62 692.24,628.49 695.06,625.40"/>
    </edge>
    <edge id=":1330264334_3" function="internal">
        <lane id=":1330264334_3_0" index="0" disallow="tram rail_urban rail rail_electric rail_fast ship" speed="3.82" length="5.11" width="3.50" shape="696.35,644.02 696.35,642.44 696.83,641.59 697.80,641.46 699.26,642.07"/>
    </edge>
    <edge id=":1330264334_4" function="internal">
        <lane id=":1330264334_4_0" index="0" disallow="tram rail_urban rail rail_electric rail_fast ship" speed="6.92" length="9.84" width="3.50" shape="700.47,633.52 698.59,635.25 697.77,637.25 697.99,639.53 699.26,642.07"/>
    </edge>
    <edge id=":1330264334_5" function="internal">
        <lane id=":1330264334_5_0" index="0" disallow="tram rail_urban rail rail_electric rail_fast ship" speed="22.22" length="15.27" width="4.88" shape="700.47,633.52 687.75,641.98"/>
        <lane id=":1330264334_5_1" index="1" disallow="tram rail_urban rail rail_electric rail_fast ship" speed="22.22" length="15.27" width="4.88" shape="697.76,629.46 685.05,637.91"/>
    </edge>
    <edge id=":1330264334_7" function="internal">
        <lane id=":1330264334_7_0" index="0" disallow="tram rail_urban rail rail_electric rail_fast ship" speed="9.74" length="4.91" width="3.50" shape="697.76,629.46 693.71,630.93 693.13,630.81"/>
    </edge>
    <edge id=":1330264334_8" function="internal">
        <lane id=":1330264334_8_0" index="0" disallow="tram rail_urban rail rail_electric rail_fast ship" speed="4.51" length="2.64" width="4.88" shape="697.76,629.46 695.57,629.46 695.19,629.24"/>
    </edge>
    <edge id=":1330264334_18" function="internal">
        <lane id=":1330264334_18_0" index="0" disallow="tram rail_urban rail rail_electric rail_fast ship" speed="9.74" length="16.19" width="3.50" shape="693.13,630.81 689.54,630.04 685.26,626.79 680.86,621.17"/>
    </edge>
    <edge id=":1330264334_19" function="internal">
        <lane id=":1330264334_19_0" index="0" disallow="tram rail_urban rail rail_electric rail_fast ship" speed="4.51" length="4.49" width="4.88" shape="695.19,629.24 694.38,628.78 694.21,627.43 695.06,625.40"/>
    </edge>
    <edge id=":1330264334_9" function="internal">
        <lane id=":1330264334_9_0" index="0" disallow="tram rail_urban rail rail_electric rail_fast ship" speed="6.89" length="10.20" width="4.88" shape="683.70,619.13 685.61,621.34 687.68,622.45 689.93,622.45 692.36,621.33"/>
    </edge>
    <edge id=":1330264334_10" function="internal">
        <lane id=":1330264334_10_0" index="0" disallow="tram rail_urban rail rail_electric rail_fast ship" speed="13.89" length="27.72" width="3.50" shape="683.70,619.13 699.26,642.07"/>
    </edge>
    <edge id=":1330264334_11" function="internal">
        <lane id=":1330264334_11_0" index="0" disallow="tram rail_urban rail rail_electric rail_fast ship" speed="9.66" length="20.97" width="4.88" shape="683.70,619.13 687.16,625.44 688.53,630.68 687.83,634.84 685.05,637.91"/>
    </edge>
    <edge id=":1330264334_12" function="internal">
        <lane id=":1330264334_12_0" index="0" disallow="tram rail_urban rail rail_electric rail_fast ship" speed="3.82" length="5.12" width="3.50" shape="683.70,619.13 683.76,620.70 683.30,621.57 682.34,621.73 680.86,621.17"/>
    </edge>
    <edge id=":1330264334_13" function="internal">
        <lane id=":1330264334_13_0" index="0" disallow="tram rail_urban rail rail_electric rail_fast ship" speed="6.96" length="9.89" width="3.50" shape="679.65,629.78 681.51,628.06 682.34,626.04 682.12,623.75 680.86,621.17"/>
    </edge>
    <edge id=":1330264334_14" function="internal">
        <lane id=":1330264334_14_0" index="0" disallow="tram rail_urban rail rail_electric rail_fast ship" speed="22.22" length="15.27" width="4.88" shape="679.65,629.78 692.36,621.33"/>
        <lane id=":1330264334_14_1" index="1" disallow="tram rail_urban rail rail_electric rail_fast ship" speed="22.22" length="15.27" width="4.88" shape="682.35,633.85 695.06,625.40"/>
    </edge>
    <edge id=":1330264334_16" function="internal">
        <lane id=":1330264334_16_0" index="0" disallow="tram rail_urban rail rail_electric rail_fast ship" speed="9.76" length="4.87" width="3.50" shape="682.35,633.85 686.36,632.40 686.95,632.52"/>
    </edge>
    <edge id=":1330264334_17" function="internal">
        <lane id=":1330264334_17_0" index="0" disallow="tram rail_urban rail rail_electric rail_fast ship" speed="4.51" length="2.64" width="4.88" shape="682.35,633.85 684.55,633.85 684.92,634.07"/>
    </edge>
    <edge id=":1330264334_20" function="internal">
        <lane id=":1330264334_20_0" index="0" disallow="tram rail_urban rail rail_electric rail_fast ship" speed="9.76" length="16.14" width="3.50" shape="686.95,632.52 690.52,633.28 694.82,636.51 699.26,642.07"/>
    </edge>
    <edge id=":1330264334_21" function="internal">
        <lane id=":1330264334_21_0" index="0" disallow="tram rail_urban rail rail_electric rail_fast ship" speed="4.51" length="4.49" width="4.88" shape="684.92,634.07 685.73,634.53 685.90,635.88 685.05,637.91"/>
    </edge>
    <edge id=":1330267012_0" function="internal">
        <lane id=":1330267012_0_0" index="0" disallow="tram rail_urban rail rail_electric rail_fast ship" speed="6.92" length="10.74" shape="460.56,429.68 458.76,427.63 456.67,426.93 454.29,427.59 451.62,429.60"/>
    </edge>
    <edge id=":1330267012_1" function="internal">
        <lane id=":1330267012_1_0" index="0" disallow="tram rail_urban rail rail_electric rail_fast ship" speed="11.18" length="14.53" width="6.70" shape="460.56,429.68 453.06,417.23"/>
    </edge>
    <edge id=":1330267012_2" function="internal">
        <lane id=":1330267012_2_0" index="0" disallow="tram rail_urban rail rail_electric rail_fast ship" speed="5.28" length="9.78" width="6.70" shape="460.56,429.68 460.68,426.66 461.68,425.07 463.55,424.92 466.28,426.20"/>
    </edge>
    <edge id=":1330267012_3" function="internal">
        <lane id=":1330267012_3_0" index="0" disallow="tram rail_urban rail rail_electric rail_fast ship" speed="11.18" length="14.47" width="6.70" shape="458.82,413.81 466.28,426.20"/>
    </edge>
    <edge id=":1330267012_4" function="internal">
        <lane id=":1330267012_4_0" index="0" disallow="tram rail_urban rail rail_electric rail_fast ship" speed="10.16" length="18.52" shape="458.82,413.81 459.64,416.93 458.71,420.60 456.04,424.83 451.62,429.60"/>
    </edge>
    <edge id=":1330267012_5" function="internal">
        <lane id=":1330267012_5_0" index="0" disallow="tram rail_urban rail rail_electric rail_fast ship" speed="5.28" length="9.78" width="6.70" shape="458.82,413.81 458.66,416.82 457.65,418.40 455.79,418.54 453.06,417.23"/>
    </edge>
    <edge id=":1330267012_6" function="internal">
        <lane id=":1330267012_6_0" index="0" disallow="tram rail_urban rail rail_electric rail_fast ship" speed="7.93" length="11.54" width="6.70" shape="449.41,427.28 451.94,424.46 453.39,421.84 453.77,419.43 453.06,417.23"/>
    </edge>
    <edge id=":1330267012_7" function="internal">
        <lane id=":1330267012_7_0" index="0" disallow="tram rail_urban rail rail_electric rail_fast ship" speed="8.78" length="20.16" width="6.70" shape="449.41,427.28 454.63,423.25 459.18,421.72 463.07,422.70 466.28,426.20"/>
    </edge>
    <edge id=":1330267012_8" function="internal">
        <lane id=":1330267012_8_0" index="0" disallow="tram rail_urban rail rail_electric rail_fast ship" speed="3.65" length="4.67" shape="449.41,427.28 450.83,427.03 451.67,427.34 451.93,428.19 451.62,429.60"/>
    </edge>
    <edge id=":2003929478_0" function="internal">
        <lane id=":2003929478_0_0" index="0" disallow="tram rail_urban rail rail_electric rail_fast ship" speed="27.78" length="8.10" shape="662.79,208.46 665.06,207.63 666.50,206.73 667.95,205.85 670.24,205.13"/>
        <lane id=":2003929478_0_1" index="1" disallow="tram rail_urban rail rail_electric rail_fast ship" speed="27.78" length="8.10" shape="663.57,211.56 665.80,210.75 667.21,209.85 668.63,208.98 670.88,208.26"/>
        <lane id=":2003929478_0_2" index="2" disallow="tram rail_urban rail rail_electric rail_fast ship" speed="27.78" length="8.10" shape="663.57,211.56 665.89,211.24 667.53,211.41 669.18,211.62 671.52,211.40"/>
    </edge>
    <edge id=":2003929487_0" function="internal">
        <lane id=":2003929487_0_0" index="0" disallow="tram rail_urban rail rail_electric rail_fast ship" speed="27.78" length="22.68" shape="799.57,221.08 793.38,219.78 788.49,219.04 783.57,218.48 777.28,217.71"/>
        <lane id=":2003929487_0_1" index="1" disallow="tram rail_urban rail rail_electric rail_fast ship" speed="27.78" length="22.68" shape="800.31,217.97 794.08,216.66 789.11,215.90 784.12,215.33 777.79,214.55"/>
    </edge>
    <edge id=":2003929487_2" function="internal">
        <lane id=":2003929487_2_0" index="0" disallow="tram rail_urban rail rail_electric rail_fast ship" speed="9.28" length="21.04" shape="800.31,217.97 781.43,208.67"/>
    </edge>
    <edge id=":2938270809_0" function="internal">
        <lane id=":2938270809_0_0" index="0" disallow="tram rail_urban rail rail_electric rail_fast ship" speed="3.65" length="4.67" shape="1254.39,96.42 1252.95,96.34 1252.20,95.85 1252.14,94.96 1252.78,93.66"/>
    </edge>
    <edge id=":2938270809_1" function="internal">
        <lane id=":2938270809_1_0" index="0" disallow="tram rail_urban rail rail_electric rail_fast ship" speed="11.18" length="8.00" shape="1245.87,97.70 1252.78,93.66"/>
    </edge>
    <edge id=":2938328593_0" function="internal">
        <lane id=":2938328593_0_0" index="0" disallow="tram rail_urban rail rail_electric rail_fast ship" speed="6.88" length="9.72" shape="1350.78,46.59 1349.21,44.67 1347.29,43.75 1345.02,43.86 1342.41,44.97"/>
    </edge>
    <edge id=":2938328593_1" function="internal">
        <lane id=":2938328593_1_0" index="0" disallow="tram rail_urban rail rail_electric rail_fast ship" speed="27.78" length="14.36" width="4.88" shape="1350.78,46.59 1343.73,34.08"/>
    </edge>
    <edge id=":2938328593_2" function="internal">
        <lane id=":2938328593_2_0" index="0" disallow="tram rail_urban rail rail_electric rail_fast ship" speed="4.51" length="2.65" width="4.88" shape="1350.78,46.59 1350.92,44.40 1351.17,44.02"/>
    </edge>
    <edge id=":2938328593_9" function="internal">
        <lane id=":2938328593_9_0" index="0" disallow="tram rail_urban rail rail_electric rail_fast ship" speed="4.51" length="4.48" width="4.88" shape="1351.17,44.02 1351.68,43.26 1353.04,43.18 1355.01,44.16"/>
    </edge>
    <edge id=":2938328593_3" function="internal">
        <lane id=":2938328593_3_0" index="0" disallow="tram rail_urban rail rail_electric rail_fast ship" speed="27.78" length="14.27" width="4.88" shape="1348.00,31.73 1355.01,44.16"/>
    </edge>
    <edge id=":2938328593_4" function="internal">
        <lane id=":2938328593_4_0" index="0" disallow="tram rail_urban rail rail_electric rail_fast ship" speed="8.73" length="5.03" shape="1348.00,31.73 1349.22,35.39 1349.04,36.55"/>
    </edge>
    <edge id=":2938328593_5" function="internal">
        <lane id=":2938328593_5_0" index="0" disallow="tram rail_urban rail rail_electric rail_fast ship" speed="4.51" length="2.62" width="4.88" shape="1348.00,31.73 1347.82,33.92 1347.58,34.26"/>
    </edge>
    <edge id=":2938328593_10" function="internal">
        <lane id=":2938328593_10_0" index="0" disallow="tram rail_urban rail rail_electric rail_fast ship" speed="8.73" length="11.20" shape="1349.04,36.55 1348.69,38.82 1346.42,42.01 1342.41,44.97"/>
    </edge>
    <edge id=":2938328593_11" function="internal">
        <lane id=":2938328593_11_0" index="0" disallow="tram rail_urban rail rail_electric rail_fast ship" speed="4.51" length="4.51" width="4.88" shape="1347.58,34.26 1347.04,35.04 1345.68,35.10 1343.73,34.08"/>
    </edge>
    <edge id=":2938328593_6" function="internal">
        <lane id=":2938328593_6_0" index="0" disallow="tram rail_urban rail rail_electric rail_fast ship" speed="6.80" length="9.78" width="4.88" shape="1340.80,42.21 1343.08,40.47 1344.34,38.54 1344.55,36.41 1343.73,34.08"/>
    </edge>
    <edge id=":2938328593_7" function="internal">
        <lane id=":2938328593_7_0" index="0" disallow="tram rail_urban rail rail_electric rail_fast ship" speed="8.52" length="16.30" width="4.88" shape="1340.80,42.21 1345.36,40.19 1349.25,39.84 1352.47,41.16 1355.01,44.16"/>
    </edge>
    <edge id=":2938328593_8" function="internal">
        <lane id=":2938328593_8_0" index="0" disallow="tram rail_urban rail rail_electric rail_fast ship" speed="3.65" length="4.67" shape="1340.80,42.21 1342.24,42.29 1342.98,42.78 1343.04,43.68 1342.41,44.97"/>
    </edge>