<?xml version="1.0" encoding="UTF-8"?>

<!-- generated on 2024-07-15 16:18:09.034008 by randomTrips.py UNKNOWN
<configuration>
    <end value="300"/>
    <net-file value="osm.net.xml"/>
    <period value="0.5"/>
    <route-file value="osm.rou.xml"/>
</configuration>
-->

<!-- generated on 2024-07-15 16:18:09 by Eclipse SUMO duarouter Version v1_15_0+0596-65718631903
<configuration xmlns:xsi="http://www.w3.org/2001/XMLSchema-instance" xsi:noNamespaceSchemaLocation="http://sumo.dlr.de/xsd/duarouterConfiguration.xsd">

    <input>
        <net-file value="osm.net.xml"/>
        <route-files value="trips.trips.xml"/>
    </input>

    <output>
        <output-file value="osm.rou.xml"/>
        <alternatives-output value="NUL"/>
    </output>

    <time>
        <begin value="0"/>
        <end value="300"/>
    </time>

    <report>
        <no-warnings value="true"/>
        <ignore-errors value="true"/>
        <no-step-log value="true"/>
    </report>

</configuration>
-->

<routes xmlns:xsi="http://www.w3.org/2001/XMLSchema-instance" xsi:noNamespaceSchemaLocation="http://sumo.dlr.de/xsd/routes_file.xsd">
    <vehicle id="0" depart="0.00">
        <route edges="426659553#0 -947879228 633904936 292967031#0 292967031#1 993825359 1089085521 -1120509015"/>
    </vehicle>
    <vehicle id="1" depart="0.50">
        <route edges="-8646223#0 -292807008#1 292812690#0 292812690#1 -85891007#2"/>
    </vehicle>
    <vehicle id="2" depart="1.00">
        <route edges="591217318 51811528#0 426488940#0 426488940#2 427635744#0 85890979 426488942 85891007#0 290084391#0 518404079#0 518404079#2"/>
    </vehicle>
    <vehicle id="3" depart="1.50">
        <route edges="8641571#1 -8641571#2 426659559#0 -993825360#1 993825359 8638395#0 8638395#1 -292809744"/>
    </vehicle>
    <vehicle id="4" depart="2.00">
        <route edges="290276273 -290280037 114182715#1 -8652103#0 -1226231204#1 290281427#1 426498645#0 426498646 426498206 290281426#0 290281426#1 544506503 426497571#0 -1212692909 -1212692908#0 -426491387#2 -292807008#2 -292807008#1 -1089085520#1 -832439083#2 -85890998#1 -1121694527#1"/>
    </vehicle>
    <vehicle id="5" depart="2.50">
        <route edges="-85890998#1 8645381 822604874 1089085520#0 292807008#1 292807008#2 426491387#0 426497570#0 1212692908#1 426498010 426498009#0 544506505#0 544506505#1 541022697 236579256 627757427#0 290281424#0 290281424#1 -8638021 292967029#0 292967029#1"/>
    </vehicle>
    <vehicle id="6" depart="3.00">
        <route edges="-1120509015 -292812690#3 -292812690#0 292807008#1 292807008#2 426491387#0 -426497569#2 -591235970#2 -293227068#3 -85310729#1 -85310729#0"/>
    </vehicle>
    <vehicle id="7" depart="3.50">
        <route edges="426659557 533607551 426498204 290281426#0 290281426#1 544506503 426497571#0 -1212692909 -1212692908#0 -426491387#2 -292807008#2 -292807008#1 -1089085520#1 -832439083#2 -85890998#1 -1121694527#1 426488940#0 426488940#2"/>
    </vehicle>
    <vehicle id="8" depart="4.00">
        <route edges="-85890998#1 8645381 822604874 1089085520#0 292807008#1 292807008#2 426491387#0 426497570#0 1212692908#1 426498010"/>
    </vehicle>
    <vehicle id="9" depart="4.50">
        <route edges="734528310 518404079#0 8641571#1 8641571#3 -1212692909 -1212692908#0 -426491387#2 -292807008#2 -292807008#1 -1089085520#1"/>
    </vehicle>
    <vehicle id="10" depart="5.00">
        <route edges="734528310 518404079#0 518404079#2 426659553#0 426659557 533607551 426498204 541022699"/>
    </vehicle>
    <vehicle id="11" depart="5.50">
        <route edges="-94482795 -632602969 633904936 -633904936"/>
    </vehicle>
    <vehicle id="12" depart="6.00">
        <route edges="8652103#0 -8652103#0 -1226231204#1 290281427#1 426498645#0 426498646 426498206 541022699 426498643#0 485262838 306150212#0 426659554#0 426659559#0 -993825360#1"/>
    </vehicle>
    <vehicle id="13" depart="6.50">
        <route edges="-292812690#0 292812690#0 292812690#1 -292812690#3"/>
    </vehicle>
    <vehicle id="14" depart="7.00">
        <route edges="85310729#1 293227068#1 591235970#0 426497569#0 426497570#0 1212692908#1 426498010 426498009#0 544506505#0 544506505#1 541022697 236579256 426498646 426498206"/>
    </vehicle>
    <vehicle id="15" depart="7.50">
        <route edges="734528310 518404079#0 8641571#1 8641571#3 -1212692909 -1212692908#0 -426491387#2 -292807008#2 -292807008#1 -1089085520#1 -832439083#2 -85890998#1 -8647521#1 592009791"/>
    </vehicle>
    <vehicle id="16" depart="8.00">
        <route edges="295175439 8641654#0 1226231204#0 8652103#0 8652103#1 8650834#1 926764280#1"/>
    </vehicle>
    <vehicle id="17" depart="8.50">
        <route edges="114182715#0 114182715#1 -8652103#0 -1226231204#1 290281427#1 426498645#0 426498646 426498206 290281426#0 290281426#1 544506503 426497571#0 -1212692909 -1212692908#0 -426491387#2 -292807008#2 -292807008#1 -1089085520#1 -832439083#2 -85890998#1 -1121694527#1 426488940#0 8646770 426489162"/>
    </vehicle>
    <vehicle id="18" depart="9.00">
        <route edges="832439143 -633904936 633904939#0 426659557 533607551 426498204 541022697 236579256 426498646"/>
    </vehicle>
    <vehicle id="19" depart="9.50">
        <route edges="8638021 926995007 926764280#0 -8650834#1 -8650834#0 -8652103#0 -1226231204#1 290281427#1 426498645#0 426498646 426498206 290281426#0 290281426#1 544506503 426497571#0 -1212692909 -1212692908#0 426497570#0"/>
    </vehicle>
    <vehicle id="20" depart="10.00">
        <route edges="533607551 426498204 541022697 236579256 627757427#0 1226231204#0 8652103#0 -8652103#0 -1226231204#1"/>
    </vehicle>
    <vehicle id="21" depart="10.50">
        <route edges="-8638021 8641654#0 1226231204#0 8652103#0 8652103#1 8650834#1 -8650834#1"/>
    </vehicle>
    <vehicle id="22" depart="11.00">
        <route edges="-292809511#0 292809511#0 292809511#1 -8638395#0"/>
    </vehicle>
    <vehicle id="23" depart="11.50">
        <route edges="-292812690#3 -292812690#0 292807008#1 292807008#2 426491387#0 8641115 8647263 -8647263"/>
    </vehicle>
    <vehicle id="24" depart="12.00">
        <route edges="426498646 426498206 541022697 236579256 627757427#0 290281424#0 290281424#1 926995007 114182715#0"/>
    </vehicle>
    <vehicle id="25" depart="12.50">
        <route edges="1121696256#0 8645381 822604874 1089085520#0 292812690#0 292812690#1 -85891007#2 -1120503844 -85890979"/>
    </vehicle>
    <vehicle id="26" depart="13.00">
        <route edges="-8643657 85310729#1 293227068#1 591235970#0 426497569#0 426497570#0 1212692908#1 426498010 426498009#0 544506505#0 544506505#1 541022699 426498643#0 292809927 8648213#0"/>
    </vehicle>
    <vehicle id="27" depart="13.50">
        <route edges="426659554#0 518404079#2 426659553#0 426659557 533607551 426498204 541022699 426498643#0"/>
    </vehicle>
    <vehicle id="28" depart="14.00">
        <route edges="-712375229#0 712375229#0 712375229#1 -293227068#3 -293227068#0 187589433 592009791"/>
    </vehicle>
    <vehicle id="29" depart="14.50">
        <route edges="-678127463#1 678127463#1 -292967031#1 -292967031#0 -633904936 633904939#0 426659557 533607551 426498204 541022697 236579256 627757427#0 1226231204#0 8652103#0 8652103#1 114182722"/>
    </vehicle>
    <vehicle id="30" depart="15.00">
        <route edges="993825359 -993825359 -292967031#1 -292967031#0 -633904936 633904939#0 306150212#0 426659554#0 426659559#0"/>
    </vehicle>
    <vehicle id="31" depart="15.50">
        <route edges="426488940#2 427635744#0 85890979 426488942 85891007#0 292807009#0 -1089085521 -993825359 -292967031#1 -292967031#0 -633904936 633904939#0 426659557 533607551"/>
    </vehicle>
    <vehicle id="32" depart="16.00">
        <route edges="85310729#0 8643657 -712375229#0 712375229#0"/>
    </vehicle>
    <vehicle id="33" depart="16.50">
        <route edges="-8638021 8641654#0 290281427#1 426498645#0 426498646 426498206 290281426#0 290281426#1 544506503 426497571#0 -1212692909 -1212692908#0"/>
    </vehicle>
    <vehicle id="34" depart="17.00">
        <route edges="-8652103#0 -1226231204#1 290281427#1 426498645#0 426498646 426498206 290281426#0 290281426#1 544506503 426497571#0 -1212692909 8646460 -8646460"/>
    </vehicle>
    <vehicle id="35" depart="17.50">
        <route edges="-85890979 -427635744#1 427635744#0 85890979 426488942 85891007#0 -292812690#3 -292812690#0 292807008#1 292807008#2 426491387#0 426497570#0 1212692908#1 426498010 426498009#0 544506505#0 544506505#1 541022697 236579256 627757427#0 1226231204#0 8652103#0 8652103#1 8650834#1"/>
    </vehicle>
    <vehicle id="36" depart="18.00">
        <route edges="8640122 591217318 51811528#0 426491386#0 8645381 822604874 1089085520#0 292807008#1 292807008#2 426491387#0 426497570#0 1212692908#1 426498010 426498009#0 544506505#0 544506505#1 541022697 236579256 627757427#0 1226231204#0 8652103#0 8652103#1 8650834#1 -926764280#0 -926995007"/>
    </vehicle>
    <vehicle id="37" depart="18.50">
        <route edges="426659559#0 518404087 426659560#0 -292812690#3 -292812690#0 -1089085520#1 -832439083#2 -85890998#1 -8647521#1 592009791 822604876 822604873 187589433"/>
    </vehicle>
    <vehicle id="38" depart="19.00">
        <route edges="8645381 822604874 1089085520#0 292812690#0 292812690#1 292807009#0"/>
    </vehicle>
    <vehicle id="39" depart="19.50">
        <route edges="-8643657 85310729#1 293227068#1 591235970#0 426497569#0 426497570#0 1212692908#1 -8641571#4 -8641571#2"/>
    </vehicle>
    <vehicle id="40" depart="20.00">
        <route edges="426488940#2 427635744#0 85890979 426488942 85891007#0 -292812690#3 8651870 -8646223#0"/>
    </vehicle>
    <vehicle id="41" depart="20.50">
        <route edges="426497569#0 426497570#0 1212692908#1 426498010 426498009#0 544506505#0 544506505#1 541022697 236579256 627757427#0 290281424#0 290281424#1 -8638021 8642161"/>
    </vehicle>
    <vehicle id="42" depart="21.00">
        <route edges="1212692908#1 -1212692909 -1212692908#0 -426491387#2 -292807008#2 -292807008#1 292812690#0 292812690#1 -85891007#2"/>
    </vehicle>
    <vehicle id="43" depart="21.50">
        <route edges="993825360#0 -993825360#1 -292967031#1 -292967031#0 292967031#0"/>
    </vehicle>
    <vehicle id="44" depart="22.00">
        <route edges="-292809744 -798504564 -292808567 -292967031#0 -633904936 633904939#0 426659557 533607551 426498204 541022697 236579256 627757427#0 1226231204#0 8652103#0 -8652103#0 -1226231204#1"/>
    </vehicle>
    <vehicle id="45" depart="22.50">
        <route edges="-292967031#1 -292967031#0 -633904936 633904939#0 306150212#0 426659554#0"/>
    </vehicle>
    <vehicle id="46" depart="23.00">
        <route edges="678127463#1 -292967031#1 -292967031#0 -633904936 633904939#0 426659557 533607551 426498204 541022697 236579256 627757427#0 290281424#0"/>
    </vehicle>
    <vehicle id="47" depart="23.50">
        <route edges="-292807008#1 292807008#1 292807008#2 426491387#0 426497570#0 1212692908#1"/>
    </vehicle>
    <vehicle id="48" depart="24.00">
        <route edges="993825360#0 -993825360#1 -292967031#1 -292967031#0 -633904936 633904939#0 426659557 292809927 295175439"/>
    </vehicle>
    <vehicle id="49" depart="24.50">
        <route edges="926764280#0 -8650834#1 -8650834#0 -8652103#0 -1226231204#1 290281427#1 426498645#0 426498646 426498206 541022699 426498643#0 485262838 -947879228 633904936 292967031#0 292967031#1 993825359 8638395#0"/>
    </vehicle>
    <vehicle id="50" depart="25.00">
        <route edges="-1089085521 1089085521 -1120509015 -292812690#3 -292812690#0 -1089085520#1 -832439083#2 -85890998#1 -1121694527#1 426488940#0 8646770 426489162 591217318"/>
    </vehicle>
    <vehicle id="51" depart="25.50">
        <route edges="51811528#0 426488940#0"/>
    </vehicle>
    <vehicle id="52" depart="26.00">
        <route edges="-8643657 85310729#1 293227068#1 591235970#0 426497569#0 426497570#0 1212692908#1 -8641571#4 -8641571#2 426659559#0"/>
    </vehicle>
    <vehicle id="53" depart="26.50">
        <route edges="-292967031#1 -292967031#0 -633904936 633904939#0 426659557 533607551 426498204 290281426#0 290281426#1"/>
    </vehicle>
    <vehicle id="54" depart="27.00">
        <route edges="290281427#1 426498645#0 627757427#0 1226231204#0 8652103#0"/>
    </vehicle>
    <vehicle id="55" depart="27.50">
        <route edges="8640122 591217318 51811528#0 426491386#0 8645381 822604874 1089085520#0 292807008#1 8646223#0 -8646223#0"/>
    </vehicle>
    <vehicle id="56" depart="28.00">
        <route edges="292812690#0 -292812690#0 292807008#1 292807008#2 426491387#0 -426497569#2 -591235970#2 -712375229#3"/>
    </vehicle>
    <vehicle id="57" depart="28.50">
        <route edges="8643657 -8643657 -85310729#0 8640806"/>
    </vehicle>
    <vehicle id="58" depart="29.00">
        <route edges="-8650834#0 -8652103#0 -1226231204#1 290281427#1 426498645#0 426498646 426498206 541022699 426498643#0 485262838 306150212#0 426659554#0 426659559#0"/>
    </vehicle>
    <vehicle id="59" depart="29.50">
        <route edges="426498010 426498009#0 636069022#0 636069022#1 1131145222#0 -947879228 633904936 -94482795 -632602969"/>
    </vehicle>
    <vehicle id="60" depart="30.00">
        <route edges="633904936 292967031#0 292967031#1 993825359 1089085521 -1120509015 -292812690#3 -292812690#0 -1089085520#1 -832439083#2 -85890998#1 -1121694527#1 426488940#0"/>
    </vehicle>
    <vehicle id="61" depart="30.50">
        <route edges="636069022#1 1131145222#0 306150212#0"/>
    </vehicle>
    <vehicle id="62" depart="31.00">
        <route edges="-1065418333 -798504564 -292808567 -292967031#0 -633904936 633904939#0 -947879228"/>
    </vehicle>
    <vehicle id="63" depart="31.50">
        <route edges="-1120503844 -85890979 -427635744#1 427635744#0 85890979 426488942 85891007#0 -292812690#3 -292812690#0 -1089085520#1 -832439083#2 -85890998#1 -1121694527#1 426488940#0 8646770"/>
    </vehicle>
    <vehicle id="64" depart="32.00">
        <route edges="8640122 591217318 51811528#0 426491386#0 -8647521#1 592009791 822604876 822604873 990899889#0 -85310729#1 85310729#1"/>
    </vehicle>
    <vehicle id="65" depart="32.50">
        <route edges="-8650834#1 114182722 290280037 -290280037"/>
    </vehicle>
    <vehicle id="66" depart="33.00">
        <route edges="8640122 591217318 51811528#0 426491386#0 8645381 822604874 1089085520#0 292812690#0 8651870"/>
    </vehicle>
    <vehicle id="67" depart="33.50">
        <route edges="-292809511#1 678127463#1 -292967031#1 -292967031#0 -633904936 633904939#0 426659557 292809927"/>
    </vehicle>
    <vehicle id="68" depart="34.00">
        <route edges="-292807008#2 292807008#2 426491387#0 426497570#0 1212692908#1 426498010 426498009#0 636069022#0 636069022#1"/>
    </vehicle>
    <vehicle id="69" depart="34.50">
        <route edges="633904936 -633904936 633904939#0 426659557 533607551 426498204 290281426#0 290281426#1 544506503 426497571#0 -1212692909 -1212692908#0 -426497569#2"/>
    </vehicle>
    <vehicle id="70" depart="35.00">
        <route edges="292808567 -292808567 292967031#1 993825359 1089085521 -1120509015 -85891007#2 -1120503844 -85890979 -427635744#1 427635744#0 85890979 426488942"/>
    </vehicle>
    <vehicle id="71" depart="35.50">
        <route edges="-8643657 85310729#1 293227068#1 591235970#0 426497569#0 8641115"/>
    </vehicle>
    <vehicle id="72" depart="36.00">
        <route edges="290276273 -290280037 114182715#1 -8652103#0 -1226231204#1 290281427#1 426498645#0 426498646 426498206 290281426#0 290281426#1 544506503 426497571#0 -1212692909 -1212692908#0 -426491387#2 -292807008#2 -292807008#1 292812690#0 292812690#1 -85891007#2 -1120503844 -85890979"/>
    </vehicle>
    <vehicle id="73" depart="36.50">
        <route edges="295175439 8641654#0 290281427#1 426498645#0 426498646 426498206 290281426#0 290281426#1 544506503 426497571#0 -1212692909 -1212692908#0 -426491387#2 -292807008#2 -292807008#1 -1089085520#1 -832439083#2 -85890998#1 -8647521#1 592009791"/>
    </vehicle>
    <vehicle id="74" depart="37.00">
        <route edges="-85310729#0 8640806 712375229#0 712375229#1 591235970#0 426497569#0 426497570#0 1212692908#1 426498010 426498009#0 544506505#0 544506505#1 541022697 236579256 627757427#0 1226231204#0 8652103#0 8652103#1 8650834#1 -926764280#0 -926995007"/>
    </vehicle>
    <vehicle id="75" depart="37.50">
        <route edges="993825360#0 518404087 426659560#0 -85891007#2 -1120503844 -85890979 -427635744#1 427635744#0"/>
    </vehicle>
    <vehicle id="76" depart="38.00">
        <route edges="290281426#0 290281426#1 636069022#0 636069022#1 1131145222#0 -947879228 633904936 292967031#0 292967031#1"/>
    </vehicle>
    <vehicle id="77" depart="38.50">
        <route edges="-293227068#3 293227068#1 591235970#0 426497569#0 426497570#0 1212692908#1 426498010 426498009#0 544506505#0 544506505#1 541022697 236579256 627757427#0 290281424#0 290281424#1 -8638021"/>
    </vehicle>
    <vehicle id="78" depart="39.00">
        <route edges="-94482795 -632602969 633904939#0 426659557 533607551 426498204 290281426#0 290281426#1 544506503 426497571#0 426498010"/>
    </vehicle>
    <vehicle id="79" depart="39.50">
        <route edges="-8638021 8641654#0 290281427#1 426498645#0 426498646 426498206 290281426#0 290281426#1 544506503 426497571#0 -1212692909 -1212692908#0 -426491387#2 -292807008#2 -292807008#1 292812690#0 292812690#1 -85891007#2"/>
    </vehicle>
    <vehicle id="80" depart="40.00">
        <route edges="-292808567 -292967031#0 -633904936 633904939#0 426659557"/>
    </vehicle>
    <vehicle id="81" depart="40.50">
        <route edges="-8638021 8641654#0 290281427#1 426498645#0 426498646 426498206 290281426#0 290281426#1 544506503 426497571#0 -1212692909 -1212692908#0 -426491387#2 -292807008#2 -292807008#1 -1089085520#1 -832439083#2 -85890998#1 8645381"/>
    </vehicle>
    <vehicle id="82" depart="41.00">
        <route edges="8638021 926995007 926764280#0 -8650834#1 -8650834#0 -8652103#0 -1226231204#1 290281427#1 426498645#0 426498646 426498206 541022699 426498643#0 485262838 -947879228 633904936 292967031#0 292808567 -292808567"/>
    </vehicle>
    <vehicle id="83" depart="41.50">
        <route edges="-8638395#1 -8638395#0 1089085521 -1120509015 290084391#0 518404079#0"/>
    </vehicle>
    <vehicle id="84" depart="42.00">
        <route edges="-85890979 -427635744#1 427635744#0 85890979 426488942 85891007#0 -292812690#3 -292812690#0 292807008#1 292807008#2 426491387#0 -426497569#2"/>
    </vehicle>
    <vehicle id="85" depart="42.50">
        <route edges="8647263 -8646460 -1212692908#0 -426497569#2 -591235970#2 591235970#0 426497569#0"/>
    </vehicle>
    <vehicle id="86" depart="43.00">
        <route edges="292808567 -292808567 -292967031#0 -633904936 633904939#0 426659557 533607551 426498204 290281426#0 290281426#1 544506503 426497571#0 -1212692909 -1212692908#0 -426497569#2 -591235970#2 -712375229#3 712375229#1"/>
    </vehicle>
    <vehicle id="87" depart="43.50">
        <route edges="734528310 518404079#0 8641571#1 8641571#3 -1212692909 -1212692908#0 -426491387#2 -292807008#2 -292807008#1 -1089085520#1 -832439083#2"/>
    </vehicle>
    <vehicle id="88" depart="44.00">
        <route edges="-292812690#0 292807008#1 292807008#2 426491387#0 426497570#0 1212692908#1 426498010 426498009#0 544506505#0 544506505#1 290281426#0"/>
    </vehicle>
    <vehicle id="89" depart="44.50">
        <route edges="290276273 -290280037 114182715#1 -8652103#0 -1226231204#1 290281427#1 426498645#0 426498646 426498206 541022699 426498643#0 485262838 -947879228 633904936 292967031#0 292808567 292809511#0"/>
    </vehicle>
    <vehicle id="90" depart="45.00">
        <route edges="544506505#0 544506505#1 290281426#0 290281426#1 544506503 426497571#0 -1212692909 -1212692908#0 8641115 734528310 518404079#0"/>
    </vehicle>
    <vehicle id="91" depart="45.50">
        <route edges="990899889#0 293227068#1 591235970#0 426497569#0 -426491387#2 -292807008#2 -292807008#1 292812690#0 292812690#1 -292812690#3"/>
    </vehicle>
    <vehicle id="92" depart="46.00">
        <route edges="1226231204#0 8652103#0 -8652103#0 -1226231204#1 1086987623#1"/>
    </vehicle>
    <vehicle id="93" depart="46.50">
        <route edges="8638021 926995007 926764280#0 -8650834#1 -8650834#0 -8652103#0 -1226231204#1 290281427#1 426498645#0 426498646 426498206 290281426#0 290281426#1 544506503 426497571#0 -8641571#4 -8641571#2"/>
    </vehicle>
    <vehicle id="94" depart="47.00">
        <route edges="-832677772 -8646460 -1212692908#0 -426491387#2 -292807008#2 -292807008#1 292807008#1"/>
    </vehicle>
    <vehicle id="95" depart="47.50">
        <route edges="290276273 -290280037 114182715#1 -8652103#0 -1226231204#1 290281427#1 426498645#0 426498646 426498206 290281426#0 290281426#1 544506503 426497571#0 -1212692909 -1212692908#0 -426491387#2 -292807008#2 -292807008#1 -1089085520#1 -832439083#2 -85890998#1 -8647521#1"/>
    </vehicle>
    <vehicle id="96" depart="48.00">
        <route edges="-8641571#2 8641571#1 8641571#3 -1212692909 8646460"/>
    </vehicle>
    <vehicle id="97" depart="48.50">
        <route edges="290281426#0 290281426#1 636069022#0 636069022#1 1131145222#0 -947879228 633904936 292967031#0 292967031#1 993825359 8638395#0 8638395#1"/>
    </vehicle>
    <vehicle id="98" depart="49.00">
        <route edges="306150212#0 426659554#0 518404079#2 426659553#0 426659557 533607551 426498204 541022697 236579256 627757427#0 290281424#0 290276273 -290280037 -1279008918"/>
    </vehicle>
    <vehicle id="99" depart="49.50">
        <route edges="993825360#0 518404087 426659560#0 -85891007#2 -1120503844 -85890979 -427635744#1 427635744#0 85890979"/>
    </vehicle>
    <vehicle id="100" depart="50.00">
        <route edges="926764280#0 -8650834#1 -8650834#0 -8652103#0 -1226231204#1 290281427#1 426498645#0 426498646 426498206 290281426#0 290281426#1 544506503 426497571#0 -1212692909 -1212692908#0 -426491387#2 -292807008#2 -292807008#1 -1089085520#1 -832439083#2 -85890998#1 -1121694527#1 426488940#0 8646770"/>
    </vehicle>
    <vehicle id="101" depart="50.50">
        <route edges="85890979 426488942 85891007#0 292807009#0 -1089085521 -993825359 -678127463#1"/>
    </vehicle>
    <vehicle id="102" depart="51.00">
        <route edges="292809511#1 -8638395#0 1089085521 -1120509015 -85891007#2 -1120503844 -85890979"/>
    </vehicle>
    <vehicle id="103" depart="51.50">
        <route edges="1226231204#0 8652103#0 -8652103#0 -1226231204#1 290281424#0 290276273 -290280037"/>
    </vehicle>
    <vehicle id="104" depart="52.00">
        <route edges="114182715#0 114182715#1 -8652103#0 -1226231204#1 290281427#1 426498645#0 426498646 426498206 290281426#0 290281426#1 544506503 426497571#0 -1212692909 -1212692908#0 -426497569#2 -591235970#2 -293227068#3 -293227068#0 990899889#0"/>
    </vehicle>
    <vehicle id="105" depart="52.50">
        <route edges="-8643657 8643657 712375229#1"/>
    </vehicle>
    <vehicle id="106" depart="53.00">
        <route edges="292807008#1 292807008#2 426491387#0 426497570#0 1212692908#1 426498010 426498009#0 544506505#0 544506505#1 541022697 236579256 627757427#0 290281424#0 290281424#1"/>
    </vehicle>
    <vehicle id="107" depart="53.50">
        <route edges="8652103#0 -8652103#0 -1226231204#1 290281427#1 426498645#0 426498646 426498206 541022699 426498643#0 485262838 -947879228 633904936 292967031#0 292967031#1 993825360#0"/>
    </vehicle>
    <vehicle id="108" depart="54.00">
        <route edges="993825359 1089085521 -1120509015 -292812690#3 -292812690#0 292807008#1 8646223#0"/>
    </vehicle>
    <vehicle id="109" depart="54.50">
        <route edges="-633904936 633904939#0 426659557 533607551 426498204 290281426#0 290281426#1 544506503 426497571#0 -1212692909 -1212692908#0 -426491387#2 -292807008#2 8646223#0 -8651870"/>
    </vehicle>
    <vehicle id="110" depart="55.00">
        <route edges="926764280#0 -8650834#1 -8650834#0 -8652103#0 -1226231204#1 290281427#1 426498645#0 426498646 426498206 290281426#0 290281426#1 544506503 426497571#0"/>
    </vehicle>
    <vehicle id="111" depart="55.50">
        <route edges="297218447 290281427#1 426498645#0 426498646 426498206 541022699 426498643#0 485262838 -947879228 633904936"/>
    </vehicle>
    <vehicle id="112" depart="56.00">
        <route edges="-290280037 114182715#1 -8652103#0 -1226231204#1 290281427#1 426498645#0 426498646 426498206 290281426#0 290281426#1 544506503 426497571#0 426498010 426498009#0"/>
    </vehicle>
    <vehicle id="113" depart="56.50">
        <route edges="292812690#1 -292812690#3 -292812690#0 -1089085520#1 -832439083#2 -85890998#1 -1121694527#1 426488940#0 8646770 426489162 591217318 8638390#0"/>
    </vehicle>
    <vehicle id="114" depart="57.00">
        <route edges="-678127463#0 678127463#0 678127463#1 -292967031#1 -292967031#0 -633904936 633904939#0 426659557 533607551 426498204 541022697 236579256 627757427#0 1226231204#0 8652103#0 8652103#1"/>
    </vehicle>
    <vehicle id="115" depart="57.50">
        <route edges="-292809511#0 292809511#0 -678127463#0 -798504564"/>
    </vehicle>
    <vehicle id="116" depart="58.00">
        <route edges="426497571#0 -8641571#4 -8641571#2 518404079#2"/>
    </vehicle>
    <vehicle id="117" depart="58.50">
        <route edges="-8638395#0 1089085521 -1120509015 -292812690#3 -292812690#0 292807008#1 292807008#2 426491387#0 -426497569#2 -591235970#2 -293227068#3"/>
    </vehicle>
    <vehicle id="118" depart="59.00">
        <route edges="8641115 8647263 832677773 -8641571#2"/>
    </vehicle>
    <vehicle id="119" depart="59.50">
        <route edges="426497570#0 1212692908#1 426498010 426498009#0 544506505#0 544506505#1 541022697 236579256 426498646"/>
    </vehicle>
    <vehicle id="120" depart="60.00">
        <route edges="290084391#0 518404079#0 8641571#1 8641571#3 426498010 426498009#0"/>
    </vehicle>
    <vehicle id="121" depart="60.50">
        <route edges="292967031#0 -292967031#0 -633904936 633904939#0 306150212#0 426659554#0 8641571#1 -832677773 -8647263 8647263"/>
    </vehicle>
    <vehicle id="122" depart="61.00">
        <route edges="-85310729#0 8640806 712375229#0 712375229#1 591235970#0 426497569#0 426497570#0 1212692908#1 426498010 426498009#0 544506505#0 544506505#1"/>
    </vehicle>
    <vehicle id="123" depart="61.50">
        <route edges="-8638395#1 -8638395#0 -993825359 -292967031#1 -292967031#0 -633904936 633904939#0 426659557 533607551 426498204 541022697 236579256"/>
    </vehicle>
    <vehicle id="124" depart="62.00">
        <route edges="485262838 426659557 533607551 426498204 541022697 236579256 627757427#0 1226231204#0 8652103#0 -8652103#0"/>
    </vehicle>
    <vehicle id="125" depart="62.50">
        <route edges="-8652103#0 -1226231204#1 290281427#1 426498645#0 426498646 426498206 541022699 426498643#0 485262838 -947879228 633904939#0"/>
    </vehicle>
    <vehicle id="126" depart="63.00">
        <route edges="-292808567 292967031#1 993825359 1089085521 -1120509015 292807009#0"/>
    </vehicle>
    <vehicle id="127" depart="63.50">
        <route edges="993825360#0"/>
    </vehicle>
    <vehicle id="128" depart="64.00">
        <route edges="-292808567 292967031#1 993825359 1089085521 -1120509015 -85891007#2 -1120503844 -85890979"/>
    </vehicle>
    <vehicle id="129" depart="64.50">
        <route edges="-8643657 85310729#1 293227068#1 591235970#0 426497569#0 8641115 8647263"/>
    </vehicle>
    <vehicle id="130" depart="65.00">
        <route edges="8640122 591217318 51811528#0 426488940#0 426488940#2 427635744#0 85890979 426488942 85891007#0 290084391#0 518404079#0 8641571#1"/>
    </vehicle>
    <vehicle id="131" depart="65.50">
        <route edges="1121696256#0 8645381 822604874 1089085520#0 292807008#1 292807008#2 426491387#0 426497570#0 1212692908#1 426498010 426498009#0 636069022#0 636069022#1 1131145222#0 -947879228 633904936 -633904936"/>
    </vehicle>
    <vehicle id="132" depart="66.00">
        <route edges="832677773 8641571#3 426498010 426498009#0 544506503"/>
    </vehicle>
    <vehicle id="133" depart="66.50">
        <route edges="426498204 290281426#0 290281426#1 544506503 426497571#0 -1212692909 -1212692908#0 -426497569#2 -591235970#2 -293227068#3 -293227068#0 990899889#0"/>
    </vehicle>
    <vehicle id="134" depart="67.00">
        <route edges="426659557 533607551 426498204 290281426#0 290281426#1 544506503 426497571#0 -1212692909 -1212692908#0 -426491387#2 -292807008#2 -292807008#1 -1089085520#1"/>
    </vehicle>
    <vehicle id="135" depart="67.50">
        <route edges="822604874 1089085520#0 292807008#1 8646223#0 -8651870"/>
    </vehicle>
    <vehicle id="136" depart="68.00">
        <route edges="426659560#0 292807009#0 -1089085521 -993825359 -292967031#1 -292967031#0 -633904936 633904939#0 426659557 292809927 8648213#0"/>
    </vehicle>
    <vehicle id="137" depart="68.50">
        <route edges="-426497569#2 -591235970#2 -293227068#3 -293227068#0"/>
    </vehicle>
    <vehicle id="138" depart="69.00">
        <route edges="-292967031#0 -633904936 633904939#0 426659557 533607551 426498204 290281426#0 290281426#1 544506503 426497571#0 -1212692909 -1212692908#0 -426491387#2 -292807008#2 -292807008#1 -1089085520#1 -832439083#2 -85890998#1 -1121694527#1 426488940#0 8646770 426489162"/>
    </vehicle>
    <vehicle id="139" depart="69.50">
        <route edges="-8646223#0 292807008#2 426491387#0 426497570#0 1212692908#1 426498010 426498009#0 544506505#0 544506505#1 541022699 426498643#0"/>
    </vehicle>
    <vehicle id="140" depart="70.00">
        <route edges="541022699 426498643#0 533607551 426498204 290281426#0 290281426#1 544506503 426497571#0 -1212692909 -1212692908#0 -426497569#2 -591235970#2 -293227068#3 -85310729#1"/>
    </vehicle>
    <vehicle id="141" depart="70.50">
        <route edges="426498646 426498206 290281426#0 290281426#1 544506503 426497571#0 -1212692909 -1212692908#0 -426491387#2 -292807008#2 8646223#0 -8646223#0"/>
    </vehicle>
    <vehicle id="142" depart="71.00">