<?xml version="1.0" encoding="UTF-8"?>

<!-- generated on 2024-06-26 10:54:49.829641 by randomTrips.py UNKNOWN
<configuration>
    <end value="300"/>
    <net-file value="osm.net.xml.gz"/>
    <period value="0.5"/>
    <route-file value="osm.rou.xml"/>
</configuration>
-->

<!-- generated on 2024-06-26 10:54:49 by Eclipse SUMO duarouter Version v1_15_0+0596-65718631903
<configuration xmlns:xsi="http://www.w3.org/2001/XMLSchema-instance" xsi:noNamespaceSchemaLocation="http://sumo.dlr.de/xsd/duarouterConfiguration.xsd">

    <input>
        <net-file value="osm.net.xml.gz"/>
        <route-files value="trips.trips.xml"/>
    </input>

    <output>
        <output-file value="osm.rou.xml"/>
        <alternatives-output value="NUL"/>
    </output>

    <time>
        <begin value="0"/>
        <end value="300"/>
    </time>

    <report>
        <no-warnings value="true"/>
        <ignore-errors value="true"/>
        <no-step-log value="true"/>
    </report>

</configuration>
-->

<routes xmlns:xsi="http://www.w3.org/2001/XMLSchema-instance" xsi:noNamespaceSchemaLocation="http://sumo.dlr.de/xsd/routes_file.xsd">
    <vehicle id="0" depart="0.00">
        <route edges="8643878#3 8643878#4 8643878#5 217381795#1 -113214547#2"/>
    </vehicle>
    <vehicle id="1" depart="0.50">
        <route edges="-8647171#2 8647171#2 8647171#3 8647749#4 8647749#5 -8644416#2 -8644416#1"/>
    </vehicle>
    <vehicle id="2" depart="1.00">
        <route edges="8645994#1 -8645994#2 591235996#0 591235996#1 8642174#0 8642174#1 570153675 426452562#0 426452562#2 8643843#0 8650477#0 8650477#1 8650477#2 8650477#3 633109348 633109347#0 633109347#1 633109347#2 633109347#3 633109347#4 8643878#2 8643878#3 8643878#4 8643878#5"/>
    </vehicle>
    <vehicle id="3" depart="1.50">
        <route edges="8649455#0 -8645994#2 591235996#0 591235996#1 8642174#0 8642174#1 570153675 426452562#0 426452562#2 8643843#0 8650477#0 8650477#1 8650477#2 8650477#3 633109348 -633109348"/>
    </vehicle>
    <vehicle id="4" depart="2.00">
        <route edges="29018127#0 -8643843#4 8647749#0 8647749#1 8647749#2 8647749#3 8647749#4 8647749#5 8647749#6 -113214547#5 -113214547#4 -113214547#3"/>
    </vehicle>
    <vehicle id="5" depart="2.50">
        <route edges="-8644084#7 8644084#7 -8642174#1 -8642174#0 296966997#0 296966997#1 591235996#0"/>
    </vehicle>
    <vehicle id="6" depart="3.00">
        <route edges="-113214547#14 -113214547#13 -113214547#12 -113214547#11 -113214547#10 -113214547#8 -113214547#6 -113214547#5 -113214547#4 -113214547#3 217381795#2 217381795#3 8647171#2 8647171#3 8647171#4 -633109348 8649874#0 8649874#1 8649874#2 8648398 -8644084#5"/>
    </vehicle>
    <vehicle id="7" depart="3.50">
        <route edges="8643878#5 217381795#1 217381795#2 -8644416#5 -8644416#4 -8644416#3 -8644416#2 8636670"/>
    </vehicle>
    <vehicle id="8" depart="4.00">
        <route edges="-8644084#7 8644084#7 -8642174#1 8640002#0 8640002#1 8640650"/>
    </vehicle>
    <vehicle id="9" depart="4.50">
        <route edges="8647261#3 -8647261#3 8640002#1 8640002#2 -113214547#12 -113214547#11"/>
    </vehicle>
    <vehicle id="10" depart="5.00">
        <route edges="8647261#2 -8647261#2 113215718 591235996#1 8642174#0 8642174#1 -8644084#7 -8644084#6 -8644084#5 -8644084#4 8644084#4"/>
    </vehicle>
    <vehicle id="11" depart="5.50">
        <route edges="113214547#13 -113214547#13 8640002#3 8643878#0 8643878#1 8643878#2 8643878#3 -8643878#3"/>
    </vehicle>
    <vehicle id="12" depart="6.00">
        <route edges="8650477#0 8650477#1 8650477#2 8650477#3 633109348 633109347#0 633109347#1 633109347#2 633109347#3 113214547#11"/>
    </vehicle>
    <vehicle id="13" depart="6.50">
        <route edges="-633109348 8649874#0 8649874#1 8646712 8644084#5 8644084#6 8644084#7 -8642174#1 -8642174#0"/>
    </vehicle>
    <vehicle id="14" depart="7.00">
        <route edges="8647749#4 8647749#5 8644416#3 8644416#4 8644416#5 217381795#3 217381795#4 217381795#5 217381795#6 -8643843#4 -8643843#3 -8643843#1 -426452562#3 -426452562#1 -426452558#1 -8642174#1 -8642174#0 8642174#0"/>
    </vehicle>
    <vehicle id="15" depart="7.50">
        <route edges="8647261#3 533525993 633109347#1 8644416#0 8644416#1"/>
    </vehicle>
    <vehicle id="16" depart="8.00">
        <route edges="8636670 -113214547#6 -113214547#5 -113214547#4 8650880"/>
    </vehicle>
    <vehicle id="17" depart="8.50">
        <route edges="113215718 591235996#1 8642174#0 8642174#1 570153675 426452562#0 426452562#2 8643843#0 8643843#2 8643843#4 8643843#7 8639942"/>
    </vehicle>
    <vehicle id="18" depart="9.00">
        <route edges="8647749#1 -8648471#0 8650477#2 8650477#3 8649874#0 8649874#1 8646712 8644084#5 8644084#6 8644084#7 570153675 426452562#0 8642195#0 8642195#2"/>
    </vehicle>
    <vehicle id="19" depart="9.50">
        <route edges="8647749#6 -113214547#5 -113214547#4 -113214547#3 -113214547#2 8640496"/>
    </vehicle>
    <vehicle id="20" depart="10.00">
        <route edges="8644416#1 8636670 -113214547#6"/>
    </vehicle>
    <vehicle id="21" depart="10.50">
        <route edges="-8644416#1 8644416#1 8644416#2 8644416#3 8644416#4 8644416#5 217381795#3 8647171#2 8647171#3 -8647171#3"/>
    </vehicle>
    <vehicle id="22" depart="11.00">
        <route edges="-426452562#3 426452562#2 8643843#0 8650477#0 8650477#1 8650477#2 8650477#3 633109348 633109347#0 633109347#1 8644416#0 8644416#1 8644416#2 8644416#3 -8644416#3"/>
    </vehicle>
    <vehicle id="23" depart="11.50">
        <route edges="-8640496 113214547#2 217381795#2 217381795#3 -8647171#1"/>
    </vehicle>
    <vehicle id="24" depart="12.00">
        <route edges="8643878#3 8651778 -113214547#6 -113214547#5 -113214547#4 -113214547#3 113214547#3"/>
    </vehicle>
    <vehicle id="25" depart="12.50">
        <route edges="113214547#8 8650289 8644416#1 8644416#2 8644416#3 8644416#4 8644416#5 217381795#3 8647171#2 8647171#3 8647171#4 -633109348 8649874#0 8649874#1 8646712 8644084#5 8644084#6 8644084#7 -8644084#7"/>
    </vehicle>
    <vehicle id="26" depart="13.00">
        <route edges="-8647171#1 8647171#1 8647171#2 8647171#3 8647171#4 -633109348 8649874#0 8649874#1 8649874#2 8649874#3 8649874#4"/>
    </vehicle>
    <vehicle id="27" depart="13.50">
        <route edges="8643878#5 217381795#1 217381795#2 217381795#3 217381795#4 217381795#5 217381795#6 -8643843#4 -8643843#3 -8643843#1 -426452562#3 -426452562#1 -426452558#1 -8642174#1 8642174#1"/>
    </vehicle>
    <vehicle id="28" depart="14.00">
        <route edges="-8643878#3 8643878#3 8651778 113214547#8 8650289 8644416#1"/>
    </vehicle>
    <vehicle id="29" depart="14.50">
        <route edges="-8643878#2 8643878#2 8643878#3 8651778 -113214547#6 113214547#6"/>
    </vehicle>
    <vehicle id="30" depart="15.00">
        <route edges="8651778 -113214547#6 -113214547#5 -113214547#4 -113214547#3 217381795#2 217381795#3 217381795#4 217381795#5 217381795#6 8643843#7"/>
    </vehicle>
    <vehicle id="31" depart="15.50">
        <route edges="8640002#2 -113214547#12 -113214547#11 -113214547#10 -113214547#8 -113214547#6 -113214547#5 -113214547#4 -113214547#3 217381795#2 217381795#3 217381795#4 217381795#5 8644084#1"/>
    </vehicle>
    <vehicle id="32" depart="16.00">
        <route edges="8647749#3 -8647171#3 -8647171#2 -8647171#1 8647171#1"/>
    </vehicle>
    <vehicle id="33" depart="16.50">
        <route edges="-8644416#1 8644416#1 8644416#2 8647749#6 -113214547#5 -113214547#4 -113214547#3"/>
    </vehicle>
    <vehicle id="34" depart="17.00">
        <route edges="-926133692#1 -8643843#8 -8643843#4 -8643843#3 -8643843#1 -426452562#3 -426452562#1 -426452558#1 8647026#0 -8647026#0"/>
    </vehicle>
    <vehicle id="35" depart="17.50">
        <route edges="-8644084#6 -8644084#5 -8644084#4 -8644084#3 8650477#1 8650477#2 8650477#3 633109348 633109347#0 633109347#1 633109347#2 633109347#3 -113214547#10 8650106"/>
    </vehicle>
    <vehicle id="36" depart="18.00">
        <route edges="8648398 8644084#6 8644084#7 -8642174#1 8640002#0 8647261#3 -8647261#3"/>
    </vehicle>
    <vehicle id="37" depart="18.50">
        <route edges="8644084#0 8644084#1 8647749#1 8647749#2 8647749#3 8647749#4 8647749#5 8647749#6 8647749#7 8643878#5 217381795#1"/>
    </vehicle>
    <vehicle id="38" depart="19.00">
        <route edges="8649697 -113214547#4 -113214547#3 217381795#2 217381795#3 217381795#4 217381795#5 217381795#6 -8643843#4 -8643843#3 -8643843#1 -426452562#3 426452562#2"/>
    </vehicle>
    <vehicle id="39" depart="19.50">
        <route edges="-8647026#0 570153675 426452562#0 426452562#2 8643843#0 8650477#0 8650477#1 8650477#2 8650477#3 633109348 633109347#0 633109347#1 8644416#0 8644416#1 8644416#2 8644416#3 8644416#4 8644416#5 -8644416#5"/>
    </vehicle>
    <vehicle id="40" depart="20.00">
        <route edges="8640002#3 8643878#0 8643878#1 8643878#2 8643878#3 8643878#4 8643878#5 217381795#1 217381795#2 217381795#3 -8647171#1 -8646992"/>
    </vehicle>
    <vehicle id="41" depart="20.50">
        <route edges="8642174#1 -8642174#1 -8642174#0 -638337981 8649455#2"/>
    </vehicle>
    <vehicle id="42" depart="21.00">
        <route edges="217381795#3 8647171#2 8647171#3 8647749#4 8647749#5 -8644416#2 -8644416#1 -8644416#0"/>
    </vehicle>
    <vehicle id="43" depart="21.50">
        <route edges="8652080 8647749#3 8647171#4 -633109348 8649874#0 8649874#1 8646712 8644084#5 8644084#6 8644084#7 -8642174#1 -8642174#0 296966997#0 591235996#1"/>
    </vehicle>
    <vehicle id="44" depart="22.00">
        <route edges="-633109348 633109348 633109347#0 633109347#1 633109347#2 633109347#3 -113214547#10 -113214547#8 -113214547#6"/>
    </vehicle>
    <vehicle id="45" depart="22.50">
        <route edges="-8640523 -8647171#2 217381795#4 217381795#5 217381795#6 -8643843#4 -8643843#3 8643843#2"/>
    </vehicle>
    <vehicle id="46" depart="23.00">
        <route edges="8647261#0 533608798#1 591235996#0 591235996#1 8642174#0 8642174#1 570153675 426452562#0 426452562#2 8643843#0 8650477#0 8650477#1 8648471#0 8648471#1 217381795#5"/>
    </vehicle>
    <vehicle id="47" depart="23.50">
        <route edges="-28640407#1 426452562#0 426452562#2 8643843#0 8650477#0 8650477#1 8650477#2 8650477#3 633109348 633109347#0 633109347#1 633109347#2 633109347#3 -113214547#10 -113214547#8 -113214547#6 113214547#6"/>
    </vehicle>
    <vehicle id="48" depart="24.00">
        <route edges="8652080 8647749#3 8647171#4 633109347#0 633109347#1 633109347#2 633109347#3"/>
    </vehicle>
    <vehicle id="49" depart="24.50">
        <route edges="8650477#2 8650477#3 633109348 633109347#0 633109347#1 8644416#0 8644416#1 8644416#2 8647749#6"/>
    </vehicle>
    <vehicle id="50" depart="25.00">
        <route edges="-113214547#12 -113214547#11 -113214547#10 8650289 -8644416#0 8644416#0"/>
    </vehicle>
    <vehicle id="51" depart="25.50">
        <route edges="8644084#5 -8644084#5 -8644084#4 -8644084#3 8650477#1 8650477#2 8650477#3 633109348 633109347#0 633109347#1 633109347#2 633109347#3 633109347#4"/>
    </vehicle>
    <vehicle id="52" depart="26.00">
        <route edges="-8647171#1 8647171#1 217381795#4 217381795#5 217381795#6 8643843#7"/>
    </vehicle>
    <vehicle id="53" depart="26.50">
        <route edges="-8642174#0 296966997#0"/>
    </vehicle>
    <vehicle id="55" depart="27.50">
        <route edges="8648398 -8644084#5 -8644084#4 -8644084#3 8650477#1 8650477#2 8650477#3 633109348 -8647171#4 -8647171#3 -8647171#2 -8647171#1 -8646992"/>
    </vehicle>
    <vehicle id="56" depart="28.00">
        <route edges="591235996#1 8642174#0 8642174#1 570153675 426452562#0 426452562#2 8643843#0 8650477#0 -8644084#2 -8644084#1"/>
    </vehicle>
    <vehicle id="57" depart="28.50">
        <route edges="8649697 -113214547#4 -113214547#3 217381795#2 217381795#3 8647171#2 8647171#3 8647171#4 -633109348 8649874#0 8648377"/>
    </vehicle>
    <vehicle id="58" depart="29.00">
        <route edges="-8647261#3 -8647261#2 113215718 591235996#1 8642174#0 8642174#1 570153675 426452562#0 426452562#2 8643843#0 8643843#2 8643843#4 8643843#7"/>
    </vehicle>
    <vehicle id="59" depart="29.50">
        <route edges="8643843#7 -8643843#8 -8643843#4 -8643843#3 8650477#0 8650477#1 8650477#2 8650477#3 633109348 633109347#0 633109347#1 633109347#2 633109347#3 633109347#4 8643878#2 -8643878#2"/>
    </vehicle>
    <vehicle id="60" depart="30.00">
        <route edges="8647026#0 -8647026#0 570153675 426452562#0 426452562#2 8643843#0 8650477#0 8650477#1 8650477#2 8650477#3 633109348"/>
    </vehicle>
    <vehicle id="61" depart="30.50">
        <route edges="8647171#2 8647171#3 8647171#4 633109347#0 633109347#1 633109347#2 633109347#3"/>
    </vehicle>
    <vehicle id="62" depart="31.00">
        <route edges="-113214547#10 -113214547#8 -113214547#6 -113214547#5 -113214547#4 -113214547#3 217381795#2 217381795#3 217381795#4 -8648471#1 -8648471#0"/>
    </vehicle>
    <vehicle id="63" depart="31.50">
        <route edges="-113214547#13 -113214547#12 -113214547#11 -113214547#10 -113214547#8 -113214547#6 -113214547#5 -113214547#4 -113214547#3 217381795#2 217381795#3 8647171#2 8647171#3 8647171#4 -633109348 8649874#0 8649874#1 8649874#2 8649874#3"/>
    </vehicle>
    <vehicle id="64" depart="32.00">
        <route edges="8648471#0 8648471#1 217381795#5 8644084#1 8647749#1"/>
    </vehicle>
    <vehicle id="65" depart="32.50">
        <route edges="-8648471#0 8650477#2 8650477#3 8649874#0 8649874#1 8646712 8644084#5 8644084#6 8644084#7 8647026#0 8649455#3 -28640407#1"/>
    </vehicle>
    <vehicle id="66" depart="33.00">
        <route edges="8648398 -8644084#5 -8644084#4 -8644084#3 8650477#1 8650477#2 8650477#3 633109348 633109347#0 633109347#1 633109347#2 633109347#3 -113214547#10 8650289"/>
    </vehicle>
    <vehicle id="67" depart="33.50">
        <route edges="-435486112 8643878#1 8643878#2 8643878#3 8643878#4 8643878#5 217381795#1 217381795#2 217381795#3 8647171#2 8647171#3 8647171#4 -633109348 8649874#0 8649874#1 8649874#2 8649874#3 8649874#4 533525993"/>
    </vehicle>
    <vehicle id="68" depart="34.00">
        <route edges="-426452558#1 -8642174#1 -8642174#0 296966997#0 296966997#1 8645994#1"/>
    </vehicle>
    <vehicle id="69" depart="34.50">
        <route edges="8647026#0 -8647026#0 570153675 426452562#0 426452562#2 8643843#0 8643843#2 8643843#4 -8643843#4"/>
    </vehicle>
    <vehicle id="70" depart="35.00">
        <route edges="533608798#0 533608798#1 591235996#0 591235996#1 8642174#0 8642174#1 570153675 426452562#0 426452562#2 8643843#0 8643843#2 8643843#4 8643843#7 8639942"/>
    </vehicle>
    <vehicle id="71" depart="35.50">
        <route edges="-8647026#0 570153675 426452562#0 426452562#2 8643843#0 8650477#0 8650477#1 8650477#2 8650477#3 8649874#0 8648377"/>
    </vehicle>
    <vehicle id="72" depart="36.00">
        <route edges="29018127#0 -8643843#4 -8643843#3 -8643843#1 -426452562#3 -426452562#1 -426452558#1 -8644084#7"/>
    </vehicle>
    <vehicle id="73" depart="36.50">
        <route edges="8636670 113214547#8 8650289 8644416#1"/>
    </vehicle>
    <vehicle id="74" depart="37.00">
        <route edges="-8644084#4 8644084#4 8644084#5 8644084#6 8644084#7 -8642174#1 8640002#0 -8647261#2"/>
    </vehicle>
    <vehicle id="75" depart="37.50">
        <route edges="8652080 8647749#3 8647171#4 633109347#0 633109347#1 633109347#2 633109347#3 633109347#4 -8643878#1 -8643878#0 8643878#0"/>
    </vehicle>
    <vehicle id="76" depart="38.00">
        <route edges="426452562#0 426452562#2 8643843#0 8650477#0 8650477#1 8650477#2 8650477#3 633109348 633109347#0 633109347#1"/>
    </vehicle>
    <vehicle id="77" depart="38.50">
        <route edges="-8642174#1 8642174#1 570153675 426452562#0 426452562#2 8643843#0 8650477#0 8650477#1 8650477#2 8650477#3 633109348 633109347#0 633109347#1 8644416#0 8644416#1 -8644416#1"/>
    </vehicle>
    <vehicle id="78" depart="39.00">
        <route edges="113214547#13 -113214547#13 -113214547#12 -113214547#11 -113214547#10 -113214547#8 -113214547#6 -113214547#5 -113214547#4 -113214547#3 217381795#2 217381795#3 8647171#2 8647171#3 8647171#4 -633109348 8649874#0 8649874#1 8649874#2 8649874#3 8649874#4 -8647261#3 8640002#1 8640650"/>
    </vehicle>
    <vehicle id="79" depart="39.50">
        <route edges="-8644416#1"/>
    </vehicle>
    <vehicle id="80" depart="40.00">
        <route edges="-426452558#1 570153675 426452562#0 426452562#2 8643843#0 8643843#2"/>
    </vehicle>
    <vehicle id="81" depart="40.50">
        <route edges="-8644416#1 8644416#1 8644416#2 8644416#3 8644416#4 8644416#5 217381795#3 217381795#4 217381795#5 217381795#6 -8643843#4 -8643843#3 -8643843#1 -426452562#3 -426452562#1 -426452558#1 8647026#0 8649455#3"/>
    </vehicle>
    <vehicle id="82" depart="41.00">
        <route edges="8647749#6 -113214547#5 -113214547#4 -113214547#3 217381795#2 217381795#3 217381795#4 217381795#5 217381795#6 -8643843#4 -8643843#3 -8643843#1 -426452562#3 -426452562#1"/>
    </vehicle>
    <vehicle id="83" depart="41.50">
        <route edges="-8644416#3 8647749#6 8647749#7 -8643878#4 -8643878#3 8643878#3"/>
    </vehicle>
    <vehicle id="84" depart="42.00">
        <route edges="-8644084#6 8644084#6 8644084#7 570153675 426452562#0 426452562#2 8643843#0 8643843#2 8643843#4 8643843#7 -8643843#8"/>
    </vehicle>
    <vehicle id="85" depart="42.50">
        <route edges="8649874#3 8649874#4 -8647261#3 8640002#1 8640002#2"/>
    </vehicle>
    <vehicle id="86" depart="43.00">
        <route edges="533525993 633109347#1 8644416#0 8644416#1 8644416#2 8644416#3 8644416#4 8644416#5 217381795#3 8647171#2"/>
    </vehicle>
    <vehicle id="87" depart="43.50">
        <route edges="8647261#3 -8647261#3 -8647261#2 113215718 591235996#1 8642174#0 8642174#1 -8644084#7 -8644084#6 -8644084#5 -8644084#4 -8644084#3"/>
    </vehicle>
    <vehicle id="88" depart="44.00">
        <route edges="-638337981 8647572#1 8642174#0 8642174#1 570153675 28640407#0"/>
    </vehicle>
    <vehicle id="89" depart="44.50">
        <route edges="29018127#0 -8643843#4 435330256#0"/>
    </vehicle>
    <vehicle id="90" depart="45.00">
        <route edges="8644416#5 -8644416#5 -8644416#4 -8644416#3 8647749#6 8647749#7 -8643878#4 8643878#4"/>
    </vehicle>
    <vehicle id="91" depart="45.50">
        <route edges="8651204 -8642195#2 -8642195#1 -426452562#1 -426452558#1 -8642174#1 -8642174#0"/>
    </vehicle>
    <vehicle id="92" depart="46.00">
        <route edges="217381795#3 8647171#2 8647171#3 8647171#4 633109347#0 633109347#1 633109347#2 633109347#3 113214547#11"/>
    </vehicle>
    <vehicle id="93" depart="46.50">
        <route edges="8647749#6 -113214547#5 -113214547#4 -113214547#3 217381795#2 217381795#3 217381795#4 217381795#5 217381795#6 -8643843#4 -8643843#3 -8643843#1 -426452562#3 -426452562#1 -426452558#1 -8642174#1 -8642174#0 296966997#0 296966997#1 8645994#1 -8645994#2"/>
    </vehicle>
    <vehicle id="94" depart="47.00">
        <route edges="-8644084#2 8644084#2 8644084#3 8644084#4 8644084#5 8644084#6 8644084#7 -8642174#1 -8642174#0 296966997#0 296966997#1 296966997#3"/>
    </vehicle>
    <vehicle id="95" depart="47.50">
        <route edges="29018127#0 -8643843#4 8647749#0 8647749#1 8647749#2 8647749#3 -8647171#3 -8647171#2 -8647171#1"/>
    </vehicle>
    <vehicle id="96" depart="48.00">
        <route edges="-8644416#5 8644416#5 217381795#3 8647171#2 8647171#3 8647171#4 -633109348 8649874#0 8649874#1 8649874#2"/>
    </vehicle>
    <vehicle id="97" depart="48.50">
        <route edges="426452562#2 8643843#0 8650477#0 8650477#1 8650477#2 8650477#3 633109348 633109347#0 633109347#1 8644416#0 8644416#1 8644416#2 8647749#6"/>
    </vehicle>
    <vehicle id="98" depart="49.00">
        <route edges="8640002#1 8640002#2 -113214547#12 -113214547#11 -113214547#10 -113214547#8"/>
    </vehicle>
    <vehicle id="99" depart="49.50">
        <route edges="8652080 8647749#3 -8647171#3 -8647171#2 217381795#4 -8648471#1 8647749#2"/>
    </vehicle>
    <vehicle id="100" depart="50.00">
        <route edges="8650477#2 8650477#3 8649874#0 8649874#1 8649874#2"/>
    </vehicle>
    <vehicle id="101" depart="50.50">
        <route edges="8647749#4 8647749#5 8647749#6 8647749#7 8643878#5 -8643878#5"/>
    </vehicle>
    <vehicle id="102" depart="51.00">
        <route edges="533608798#1 591235996#0 591235996#1 8642174#0 8642174#1 -8644084#7"/>
    </vehicle>
    <vehicle id="103" depart="51.50">
        <route edges="217381795#3 217381795#4 217381795#5 217381795#6 -8643843#4 -8643843#3 -8643843#1 -426452562#3 -426452562#1 28640407#0 -28640407#1"/>
    </vehicle>
    <vehicle id="104" depart="52.00">
        <route edges="113215718 591235996#1 8642174#0 8642174#1 570153675 426452562#0 426452562#2 8643843#0 8650477#0 8650477#1 8650477#2 8650477#3 633109348 633109347#0 633109347#1 633109347#2 633109347#3 633109347#4 8643878#2 8643878#3 8651778"/>
    </vehicle>
    <vehicle id="105" depart="52.50">
        <route edges="-8647171#1 8647171#1 8647171#2"/>
    </vehicle>
    <vehicle id="107" depart="53.50">
        <route edges="8650477#0 -8644084#2 -8644084#1 217381795#6 8643843#7 926133692#0"/>
    </vehicle>
    <vehicle id="108" depart="54.00">
        <route edges="8640002#2 -113214547#12 -113214547#11 -113214547#10 -113214547#8 -113214547#6 -113214547#5 -113214547#4 -113214547#3 217381795#2 217381795#3 8647171#2 8647171#3 8647171#4 -633109348 8649874#0 8649874#1 8646712 8644084#5 8644084#6 8644084#7"/>
    </vehicle>
    <vehicle id="109" depart="54.50">
        <route edges="-8643878#1 8643878#1 8643878#2 8643878#3 8643878#4 8643878#5 217381795#1 217381795#2 217381795#3 8647171#2 8647171#3 8647171#4 -633109348 8649874#0 8649874#1 8649874#2 8649874#3 8649874#4 -8647261#3 -8647261#2 -8647261#1 -8647261#0"/>
    </vehicle>
    <vehicle id="110" depart="55.00">
        <route edges="8650477#2 8650477#3 633109348 633109347#0 633109347#1 633109347#2 633109347#3 -113214547#10 -113214547#8 -113214547#6 -113214547#5 -113214547#4 -113214547#3 -113214547#2 8640496"/>
    </vehicle>
    <vehicle id="111" depart="55.50">
        <route edges="8640002#0 8647261#3 533525993 633109347#1 8644416#0 8644416#1 8644416#2 8644416#3 8644416#4 8644416#5"/>
    </vehicle>
    <vehicle id="112" depart="56.00">
        <route edges="-113214547#8 -113214547#6 -113214547#5 -113214547#4 -113214547#3 217381795#2 217381795#3 8647171#2 8640523"/>
    </vehicle>
    <vehicle id="113" depart="56.50">
        <route edges="633109347#0 633109347#1 8644416#0 8644416#1 8644416#2 8644416#3 8644416#4 8644416#5 217381795#3 8647171#2 8647171#3 8647749#4 8647749#5"/>
    </vehicle>
    <vehicle id="114" depart="57.00">
        <route edges="-8643878#1 8643878#1 8643878#2 8643878#3 8643878#4 8643878#5 217381795#1 217381795#2 217381795#3 217381795#4 217381795#5 8644084#1 8644084#2 8650477#1"/>
    </vehicle>
    <vehicle id="115" depart="57.50">
        <route edges="-426452562#3 426452562#2 8643843#0 8650477#0 -8644084#2"/>
    </vehicle>
    <vehicle id="116" depart="58.00">
        <route edges="8643843#0 8650477#0 8650477#1 8650477#2 8650477#3 633109348 633109347#0 633109347#1 633109347#2 633109347#3 633109347#4 8643878#2 8643878#3 8643878#4"/>
    </vehicle>
    <vehicle id="117" depart="58.50">
        <route edges="-8644416#2 8644416#2 8644416#3 8644416#4 8644416#5 217381795#3 217381795#4 217381795#5 217381795#6 -8643843#4 -8643843#3 -8643843#1"/>
    </vehicle>
    <vehicle id="118" depart="59.00">
        <route edges="8649455#0 -8645994#2 591235996#0 591235996#1 8642174#0 8642174#1 570153675 426452562#0 426452562#2 8643843#0 8650477#0 8650477#1 8650477#2 8650477#3 633109348 633109347#0 633109347#1 8644416#0 8644416#1 8644416#2 8644416#3 8644416#4 8644416#5 -8644416#5"/>
    </vehicle>
    <vehicle id="119" depart="59.50">
        <route edges="8643843#0 -8643843#1 -426452562#3 8642195#0 8642195#2"/>
    </vehicle>
    <vehicle id="120" depart="60.00">
        <route edges="217381795#6 -8643843#4 8647749#0 8647749#1 8647749#2 8647749#3 -8647171#3 8640523"/>
    </vehicle>
    <vehicle id="121" depart="60.50">
        <route edges="633109347#3 -113214547#10 -113214547#8 -113214547#6 -113214547#5 -113214547#4 -113214547#3 217381795#2 217381795#3 8647171#2 8647171#3 8647171#4 -633109348 8649874#0 8649874#1 8649874#2 8649874#3 8649874#4"/>
    </vehicle>
    <vehicle id="122" depart="61.00">
        <route edges="-8644084#4 8644084#4 8644084#5 8644084#6 8644084#7"/>
    </vehicle>
    <vehicle id="123" depart="61.50">
        <route edges="-8644416#3 8647749#6 8647749#7 8643878#5 217381795#1"/>
    </vehicle>
    <vehicle id="124" depart="62.00">
        <route edges="8644084#3 8644084#4 8644084#5 8644084#6 8644084#7 -8642174#1 8640002#0 -8647261#2 -8647261#1 -8647261#0"/>
    </vehicle>
    <vehicle id="125" depart="62.50">
        <route edges="-926133692#1 -8643843#8 -8643843#4 8647749#0 8647749#1 8647749#2 8647749#3 8647749#4 8647749#5 8644416#3 8644416#4 8644416#5"/>
    </vehicle>
    <vehicle id="126" depart="63.00">
        <route edges="-426452562#1 426452562#0 426452562#2"/>
    </vehicle>
    <vehicle id="127" depart="63.50">
        <route edges="8652080 8647749#3 -8647171#3 -8647171#2 217381795#4 217381795#5 217381795#6 8643843#7 926133692#0"/>
    </vehicle>
    <vehicle id="128" depart="64.00">
        <route edges="-426452562#1 -426452558#1 -8644084#7"/>
    </vehicle>
    <vehicle id="129" depart="64.50">
        <route edges="-8647171#1 8647171#1 8647171#2 8647171#3 8647171#4 -633109348 8649874#0 8649874#1 8649874#2 8649874#3"/>
    </vehicle>
    <vehicle id="130" depart="65.00">
        <route edges="8648471#0"/>
    </vehicle>
    <vehicle id="131" depart="65.50">
        <route edges="113214547#6 -113214547#6 8647749#7 -8643878#4 -8643878#3"/>
    </vehicle>
    <vehicle id="132" depart="66.00">
        <route edges="8647749#1 -8648471#0 8650477#2 8650477#3 8649874#0 8649874#1 8646712 8644084#5"/>
    </vehicle>
    <vehicle id="133" depart="66.50">
        <route edges="8643843#7 -8643843#8 -8643843#4 -8643843#3 8650477#0 8650477#1 8650477#2 8650477#3 633109348 633109347#0 633109347#1 633109347#2 633109347#3 633109347#4 8643878#2 8643878#3 8651778"/>
    </vehicle>
    <vehicle id="134" depart="67.00">
        <route edges="8644084#0 8644084#1 8644084#2 8650477#1 8650477#2 8650477#3 633109348 633109347#0 633109347#1 633109347#2 633109347#3 113214547#11 -113214547#11"/>
    </vehicle>
    <vehicle id="135" depart="67.50">
        <route edges="8647572#1 8642174#0 8640002#0 -8647261#2 -8647261#1 -8647261#0"/>
    </vehicle>
    <vehicle id="136" depart="68.00">
        <route edges="8644084#2 8650477#1 8650477#2 8650477#3 8649874#0 8649874#1 8649874#2 8649874#3 8649874#4"/>
    </vehicle>
    <vehicle id="137" depart="68.50">
        <route edges="-8643843#1"/>
    </vehicle>
    <vehicle id="138" depart="69.00">
        <route edges="-8640523 -8647171#2 217381795#4 217381795#5 217381795#6 8643843#7 8639942"/>
    </vehicle>
    <vehicle id="139" depart="69.50">
        <route edges="-8647171#2 217381795#4 217381795#5 217381795#6 -8643843#4 -8643843#3 -8643843#1 -426452562#3 -426452562#1 -426452558#1 -8642174#1 8642174#1"/>
    </vehicle>
    <vehicle id="140" depart="70.00">
        <route edges="8644416#3 8644416#4 8644416#5 217381795#3 8647171#2 8647171#3 8647171#4 -633109348 8649874#0 8649874#1 8646712 8644084#5 8644084#6 -8644084#6"/>
    </vehicle>
    <vehicle id="141" depart="70.50">
        <route edges="8643878#2 8643878#3 8643878#4 8643878#5 217381795#1 217381795#2 217381795#3 217381795#4 217381795#5 217381795#6 -8643843#4 -8643843#3 -8643843#1 -426452562#3 -426452562#1 -426452558#1 8647026#0 -8647026#0"/>
    </vehicle>
    <vehicle id="142" depart="71.00">
        <route edges="570153675 -426452558#1 8647026#0 8649455#3"/>
    </vehicle>
    <vehicle id="143" depart="71.50">
        <route edges="8647749#4 8647749#5 8644416#3 8644416#4 8644416#5 217381795#3 217381795#4 217381795#5 217381795#6 -8643843#4 -8643843#3 -8643843#1 -426452562#3 -426452562#1 -426452558#1 -8642174#1 -8642174#0 -638337981"/>
    </vehicle>
    <vehicle id="144" depart="72.00">
        <route edges="29018127#0 -8643843#4 8647749#0 8647749#1 8647749#2 8647749#3 -8647171#3 -8647171#2 -8647171#1"/>
    </vehicle>
    <vehicle id="145" depart="72.50">
        <route edges="-113214547#10 -113214547#8 -113214547#6 -113214547#5 -113214547#4 -113214547#3 217381795#2 217381795#3 217381795#4 217381795#5 217381795#6 -8643843#4 -8643843#3 -8643843#1 -426452562#3 -426452562#1 -426452558#1 8647026#0"/>
    </vehicle>
    <vehicle id="146" depart="73.00">
        <route edges="8643878#3 8643878#4 8643878#5 217381795#1 217381795#2 217381795#3 -8647171#1 -8646992"/>
    </vehicle>
    <vehicle id="147" depart="73.50">
        <route edges="8646062 633109347#3 -113214547#10 -113214547#8 -113214547#6 -113214547#5 -113214547#4 -113214547#3 217381795#2 217381795#3 217381795#4 217381795#5 217381795#6 8643843#7 8639942"/>
    </vehicle>
    <vehicle id="148" depart="74.00">
        <route edges="296966997#0 591235996#1 8642174#0 8640002#0 8640002#1 8640002#2 -113214547#12 -113214547#11"/>
    </vehicle>
    <vehicle id="149" depart="74.50">
        <route edges="-426452562#1 426452562#0 426452562#2 8643843#0 8650477#0 8650477#1 8648471#0"/>
    </vehicle>
    <vehicle id="150" depart="75.00">
        <route edges="8649455#2 -8647026#0 570153675 426452562#0 426452562#2 8643843#0 8650477#0 8650477#1 8650477#2 8650477#3 633109348 633109347#0 633109347#1 8644416#0 8644416#1 8636670"/>
    </vehicle>
    <vehicle id="151" depart="75.50">
        <route edges="8647749#2 8647749#3 -8647171#3 8640523"/>
    </vehicle>
    <vehicle id="152" depart="76.00">
        <route edges="-8643843#4"/>
    </vehicle>
    <vehicle id="153" depart="76.50">
        <route edges="-8648471#0 8650477#2 8650477#3 8649874#0 8649874#1 8646712 8644084#5 8644084#6 8644084#7 -8642174#1 -8642174#0 -638337981 8649455#2"/>
    </vehicle>
    <vehicle id="154" depart="77.00">